data_2_dia2_opt_BULK_OPTGEOM

_cell_length_a    2.713000
_cell_length_b    2.713000
_cell_length_c    13.705300
_cell_angle_alpha 90.000000
_cell_angle_beta  90.000000
_cell_angle_gamma 120.000000

_symmetry_space_group_name_H-M  'P 1'
_symmetry_Int_Tables_number     1

loop_
_symmetry_equiv_pos_as_xyz
  'x, y, z'

loop_
_atom_site_label
_atom_site_type_symbol
_atom_site_fract_x
_atom_site_fract_y
_atom_site_fract_z
C1       C     -0.333333     0.333333    -0.123540
C2       C      0.333333    -0.333333     0.123540
C3       C     -0.333333     0.333333    -0.019210
C4       C      0.333333    -0.333333     0.019210
