data_IRCOF102_sym_BULK_OPTGEOM_DZ_optimized

_cell_length_a    37.200261
_cell_length_b    37.200261
_cell_length_c    37.200261
_cell_angle_alpha 109.471221
_cell_angle_beta  109.471221
_cell_angle_gamma 109.471221

_symmetry_space_group_name_H-M  'P 1'
_symmetry_Int_Tables_number     1

loop_
_symmetry_equiv_pos_as_xyz
  'x, y, z'

loop_
_atom_site_label
_atom_site_type_symbol
_atom_site_fract_x
_atom_site_fract_y
_atom_site_fract_z
O1       O      0.485224    -0.044295     0.050310
O2       O      0.405395     0.434914     0.449690
O3       O      0.014776     0.065086     0.470481
O4       O      0.094605    -0.455705     0.029519
O5       O      0.050310     0.485224    -0.044295
O6       O     -0.044295     0.050310     0.485224
O7       O      0.029519     0.094605    -0.455705
O8       O      0.434914     0.449690     0.405395
O9       O      0.449690     0.405395     0.434914
O10      O      0.065086     0.470481     0.014776
O11      O      0.470481     0.014776     0.065086
O12      O     -0.455705     0.029519     0.094605
O13      O      0.455705    -0.014776    -0.449690
O14      O     -0.065086    -0.094605    -0.050310
O15      O     -0.434914    -0.485224    -0.029519
O16      O      0.044295    -0.405395    -0.470481
O17      O     -0.014776    -0.449690     0.455705
O18      O     -0.449690     0.455705    -0.014776
O19      O     -0.405395    -0.470481     0.044295
O20      O     -0.050310    -0.065086    -0.094605
O21      O     -0.094605    -0.050310    -0.065086
O22      O     -0.029519    -0.434914    -0.485224
O23      O     -0.485224    -0.029519    -0.434914
O24      O     -0.470481     0.044295    -0.405395
H1       H     -0.340804    -0.173592     0.068970
H2       H      0.257438    -0.409774     0.431030
H3       H     -0.159196    -0.090226     0.167212
H4       H      0.242562    -0.326408     0.332788
H5       H      0.068970    -0.340804    -0.173592
H6       H     -0.173592     0.068970    -0.340804
H7       H      0.332788     0.242562    -0.326408
H8       H     -0.409774     0.431030     0.257438
H9       H      0.431030     0.257438    -0.409774
H10      H     -0.090226     0.167212    -0.159196
H11      H      0.167212    -0.159196    -0.090226
H12      H     -0.326408     0.332788     0.242562
H13      H      0.326408     0.159196    -0.431030
H14      H      0.090226    -0.242562    -0.068970
H15      H      0.409774     0.340804    -0.332788
H16      H      0.173592    -0.257438    -0.167212
H17      H      0.159196    -0.431030     0.326408
H18      H     -0.431030     0.326408     0.159196
H19      H     -0.257438    -0.167212     0.173592
H20      H     -0.068970     0.090226    -0.242562
H21      H     -0.242562    -0.068970     0.090226
H22      H     -0.332788     0.409774     0.340804
H23      H      0.340804    -0.332788     0.409774
H24      H     -0.167212     0.173592    -0.257438
H25      H     -0.328947     0.002270     0.112792
H26      H      0.389478    -0.441739     0.387208
H27      H     -0.171053    -0.058261     0.331216
H28      H      0.110522     0.497730     0.168784
H29      H      0.112792    -0.328947     0.002270
H30      H      0.002270     0.112792    -0.328947
H31      H      0.168784     0.110522     0.497730
H32      H     -0.441739     0.387208     0.389478
H33      H      0.387208     0.389478    -0.441739
H34      H     -0.058261     0.331216    -0.171053
H35      H      0.331216    -0.171053    -0.058261
H36      H      0.497730     0.168784     0.110522
H37      H     -0.497730     0.171053    -0.387208
H38      H      0.058261    -0.110522    -0.112792
H39      H      0.441739     0.328947    -0.168784
H40      H     -0.002270    -0.389478    -0.331216
H41      H      0.171053    -0.387208    -0.497730
H42      H     -0.387208    -0.497730     0.171053
H43      H     -0.389478    -0.331216    -0.002270
H44      H     -0.112792     0.058261    -0.110522
H45      H     -0.110522    -0.112792     0.058261
H46      H     -0.168784     0.441739     0.328947
H47      H      0.328947    -0.168784     0.441739
H48      H     -0.331216    -0.002270    -0.389478
H49      H     -0.392670    -0.146404     0.054478
H50      H      0.299118    -0.447148     0.445522
H51      H     -0.107330    -0.052852     0.246266
H52      H      0.200882    -0.353596     0.253734
H53      H      0.054478    -0.392670    -0.146404
H54      H     -0.146404     0.054478    -0.392670
H55      H      0.253734     0.200882    -0.353596
H56      H     -0.447148     0.445522     0.299118
H57      H      0.445522     0.299118    -0.447148
H58      H     -0.052852     0.246266    -0.107330
H59      H      0.246266    -0.107330    -0.052852
H60      H     -0.353596     0.253734     0.200882
H61      H      0.353596     0.107330    -0.445522
H62      H      0.052852    -0.200882    -0.054478
H63      H      0.447148     0.392670    -0.253734
H64      H      0.146404    -0.299118    -0.246266
H65      H      0.107330    -0.445522     0.353596
H66      H     -0.445522     0.353596     0.107330
H67      H     -0.299118    -0.246266     0.146404
H68      H     -0.054478     0.052852    -0.200882
H69      H     -0.200882    -0.054478     0.052852
H70      H     -0.253734     0.447148     0.392670
H71      H      0.392670    -0.253734     0.447148
H72      H     -0.246266     0.146404    -0.299118
H73      H     -0.235525    -0.041764     0.165533
H74      H      0.292704    -0.401058     0.334467
H75      H     -0.264475    -0.098942     0.193762
H76      H      0.207296    -0.458236     0.306238
H77      H      0.165533    -0.235525    -0.041764
H78      H     -0.041764     0.165533    -0.235525
H79      H      0.306238     0.207296    -0.458236
H80      H     -0.401058     0.334467     0.292704
H81      H      0.334467     0.292704    -0.401058
H82      H     -0.098942     0.193762    -0.264475
H83      H      0.193762    -0.264475    -0.098942
H84      H     -0.458236     0.306238     0.207296
H85      H      0.458236     0.264475    -0.334467
H86      H      0.098942    -0.207296    -0.165533
H87      H      0.401058     0.235525    -0.306238
H88      H      0.041764    -0.292704    -0.193762
H89      H      0.264475    -0.334467     0.458236
H90      H     -0.334467     0.458236     0.264475
H91      H     -0.292704    -0.193762     0.041764
H92      H     -0.165533     0.098942    -0.207296
H93      H     -0.207296    -0.165533     0.098942
H94      H     -0.306238     0.401058     0.235525
H95      H      0.235525    -0.306238     0.401058
H96      H     -0.193762     0.041764    -0.292704
H97      H     -0.381616     0.029614     0.103341
H98      H      0.426273    -0.484957     0.396659
H99      H     -0.118384    -0.015043     0.411230
H100     H      0.073727     0.470386     0.088770
H101     H      0.103341    -0.381616     0.029614
H102     H      0.029614     0.103341    -0.381616
H103     H      0.088770     0.073727     0.470386
H104     H     -0.484957     0.396659     0.426273
H105     H      0.396659     0.426273    -0.484957
H106     H     -0.015043     0.411230    -0.118384
H107     H      0.411230    -0.118384    -0.015043
H108     H      0.470386     0.088770     0.073727
H109     H     -0.470386     0.118384    -0.396659
H110     H      0.015043    -0.073727    -0.103341
H111     H      0.484957     0.381616    -0.088770
H112     H     -0.029614    -0.426273    -0.411230
H113     H      0.118384    -0.396659    -0.470386
H114     H     -0.396659    -0.470386     0.118384
H115     H     -0.426273    -0.411230    -0.029614
H116     H     -0.103341     0.015043    -0.073727
H117     H     -0.073727    -0.103341     0.015043
H118     H     -0.088770     0.484957     0.381616
H119     H      0.381616    -0.088770     0.484957
H120     H     -0.411230    -0.029614    -0.426273
H121     H     -0.287821    -0.014570     0.153086
H122     H      0.332344    -0.440907     0.346914
H123     H     -0.212179    -0.059093     0.273251
H124     H      0.167656    -0.485430     0.226749
H125     H      0.153086    -0.287821    -0.014570
H126     H     -0.014570     0.153086    -0.287821
H127     H      0.226749     0.167656    -0.485430
H128     H     -0.440907     0.346914     0.332344
H129     H      0.346914     0.332344    -0.440907
H130     H     -0.059093     0.273251    -0.212179
H131     H      0.273251    -0.212179    -0.059093
H132     H     -0.485430     0.226749     0.167656
H133     H      0.485430     0.212179    -0.346914
H134     H      0.059093    -0.167656    -0.153086
H135     H      0.440907     0.287821    -0.226749
H136     H      0.014570    -0.332344    -0.273251
H137     H      0.212179    -0.346914     0.485430
H138     H     -0.346914     0.485430     0.212179
H139     H     -0.332344    -0.273251     0.014570
H140     H     -0.153086     0.059093    -0.167656
H141     H     -0.167656    -0.153086     0.059093
H142     H     -0.226749     0.440907     0.287821
H143     H      0.287821    -0.226749     0.440907
H144     H     -0.273251     0.014570    -0.332344
C1       C     -0.283953    -0.109626     0.117255
C2       C      0.273120    -0.401208     0.382745
C3       C     -0.216047    -0.098792     0.174328
C4       C      0.226880    -0.390374     0.325672
C5       C      0.117255    -0.283953    -0.109626
C6       C     -0.109626     0.117255    -0.283953
C7       C      0.325672     0.226880    -0.390374
C8       C     -0.401208     0.382745     0.273120
C9       C      0.382745     0.273120    -0.401208
C10      C     -0.098792     0.174328    -0.216047
C11      C      0.174328    -0.216047    -0.098792
C12      C     -0.390374     0.325672     0.226880
C13      C      0.390374     0.216047    -0.382745
C14      C      0.098792    -0.226880    -0.117255
C15      C      0.401208     0.283953    -0.325672
C16      C      0.109626    -0.273120    -0.174328
C17      C      0.216047    -0.382745     0.390374
C18      C     -0.382745     0.390374     0.216047
C19      C     -0.273120    -0.174328     0.109626
C20      C     -0.117255     0.098792    -0.226880
C21      C     -0.226880    -0.117255     0.098792
C22      C     -0.325672     0.401208     0.283953
C23      C      0.283953    -0.325672     0.401208
C24      C     -0.174328     0.109626    -0.273120
C25      C     -0.270062    -0.064740     0.140498
C26      C      0.294763    -0.410560     0.359502
C27      C     -0.229938    -0.089440     0.205323
C28      C      0.205237    -0.435260     0.294677
C29      C      0.140498    -0.270062    -0.064740
C30      C     -0.064740     0.140498    -0.270062
C31      C      0.294677     0.205237    -0.435260
C32      C     -0.410560     0.359502     0.294763
C33      C      0.359502     0.294763    -0.410560
C34      C     -0.089440     0.205323    -0.229938
C35      C      0.205323    -0.229938    -0.089440
C36      C     -0.435260     0.294677     0.205237
C37      C      0.435260     0.229938    -0.359502
C38      C      0.089440    -0.205237    -0.140498
C39      C      0.410560     0.270062    -0.294677
C40      C      0.064740    -0.294763    -0.205323
C41      C      0.229938    -0.359502     0.435260
C42      C     -0.359502     0.435260     0.229938
C43      C     -0.294763    -0.205323     0.064740
C44      C     -0.140498     0.089440    -0.205237
C45      C     -0.205237    -0.140498     0.089440
C46      C     -0.294677     0.410560     0.270062
C47      C      0.270062    -0.294677     0.410560
C48      C     -0.205323     0.064740    -0.294763
C49      C     -0.299599    -0.049444     0.133318
C50      C      0.317238    -0.432917     0.366682
C51      C     -0.200401    -0.067083     0.250155
C52      C      0.182762    -0.450556     0.249845
C53      C      0.133318    -0.299599    -0.049444
C54      C     -0.049444     0.133318    -0.299599
C55      C      0.249845     0.182762    -0.450556
C56      C     -0.432917     0.366682     0.317238
C57      C      0.366682     0.317238    -0.432917
C58      C     -0.067083     0.250155    -0.200401
C59      C      0.250155    -0.200401    -0.067083
C60      C     -0.450556     0.249845     0.182762
C61      C      0.450556     0.200401    -0.366682
C62      C      0.067083    -0.182762    -0.133318
C63      C      0.432917     0.299599    -0.249845
C64      C      0.049444    -0.317238    -0.250155
C65      C      0.200401    -0.366682     0.450556
C66      C     -0.366682     0.450556     0.200401
C67      C     -0.317238    -0.250155     0.049444
C68      C     -0.133318     0.067083    -0.182762
C69      C     -0.182762    -0.133318     0.067083
C70      C     -0.249845     0.432917     0.299599
C71      C      0.299599    -0.249845     0.432917
C72      C     -0.250155     0.049444    -0.317238
C73      C     -0.358187    -0.123025     0.079308
C74      C      0.297667    -0.437495     0.420692
C75      C     -0.141813    -0.062505     0.235162
C76      C      0.202333    -0.376975     0.264838
C77      C      0.079308    -0.358187    -0.123025
C78      C     -0.123025     0.079308    -0.358187
C79      C      0.264838     0.202333    -0.376975
C80      C     -0.437495     0.420692     0.297667
C81      C      0.420692     0.297667    -0.437495
C82      C     -0.062505     0.235162    -0.141813
C83      C      0.235162    -0.141813    -0.062505
C84      C     -0.376975     0.264838     0.202333
C85      C      0.376975     0.141813    -0.420692
C86      C      0.062505    -0.202333    -0.079308
C87      C      0.437495     0.358187    -0.264838
C88      C      0.123025    -0.297667    -0.235162
C89      C      0.141813    -0.420692     0.376975
C90      C     -0.420692     0.376975     0.141813
C91      C     -0.297667    -0.235162     0.123025
C92      C     -0.079308     0.062505    -0.202333
C93      C     -0.202333    -0.079308     0.062505
C94      C     -0.264838     0.437495     0.358187
C95      C      0.358187    -0.264838     0.437495
C96      C     -0.235162     0.123025    -0.297667
C97      C     -0.344482    -0.078308     0.102396
C98      C      0.319296    -0.446878     0.397604
C99      C     -0.155518    -0.053122     0.266173
C100     C      0.180704    -0.421692     0.233827
C101     C      0.102396    -0.344482    -0.078308
C102     C     -0.078308     0.102396    -0.344482
C103     C      0.233827     0.180704    -0.421692
C104     C     -0.446878     0.397604     0.319296
C105     C      0.397604     0.319296    -0.446878
C106     C     -0.053122     0.266173    -0.155518
C107     C      0.266173    -0.155518    -0.053122
C108     C     -0.421692     0.233827     0.180704
C109     C      0.421692     0.155518    -0.397604
C110     C      0.053122    -0.180704    -0.102396
C111     C      0.446878     0.344482    -0.233827
C112     C      0.078308    -0.319296    -0.266173
C113     C      0.155518    -0.397604     0.421692
C114     C     -0.397604     0.421692     0.155518
C115     C     -0.319296    -0.266173     0.078308
C116     C     -0.102396     0.053122    -0.180704
C117     C     -0.180704    -0.102396     0.053122
C118     C     -0.233827     0.446878     0.344482
C119     C      0.344482    -0.233827     0.446878
C120     C     -0.266173     0.078308    -0.319296
C121     C     -0.450288    -0.074836     0.073421
C122     C      0.351743     0.476291     0.426579
C123     C     -0.049712     0.023709     0.375452
C124     C      0.148257    -0.425164     0.124548
C125     C      0.073421    -0.450288    -0.074836
C126     C     -0.074836     0.073421    -0.450288
C127     C      0.124548     0.148257    -0.425164
C128     C      0.476291     0.426579     0.351743
C129     C      0.426579     0.351743     0.476291
C130     C      0.023709     0.375452    -0.049712
C131     C      0.375452    -0.049712     0.023709
C132     C     -0.425164     0.124548     0.148257
C133     C      0.425164     0.049712    -0.426579
C134     C     -0.023709    -0.148257    -0.073421
C135     C     -0.476291     0.450288    -0.124548
C136     C      0.074836    -0.351743    -0.375452
C137     C      0.049712    -0.426579     0.425164
C138     C     -0.426579     0.425164     0.049712
C139     C     -0.351743    -0.375452     0.074836
C140     C     -0.073421    -0.023709    -0.148257
C141     C     -0.148257    -0.073421    -0.023709
C142     C     -0.124548    -0.476291     0.450288
C143     C      0.450288    -0.124548    -0.476291
C144     C     -0.375452     0.074836    -0.351743
C145     C     -0.328678    -0.138416     0.086829
C146     C      0.274755    -0.415507     0.413171
C147     C     -0.171322    -0.084493     0.190262
C148     C      0.225245    -0.361584     0.309738
C149     C      0.086829    -0.328678    -0.138416
C150     C     -0.138416     0.086829    -0.328678
C151     C      0.309738     0.225245    -0.361584
C152     C     -0.415507     0.413171     0.274755
C153     C      0.413171     0.274755    -0.415507
C154     C     -0.084493     0.190262    -0.171322
C155     C      0.190262    -0.171322    -0.084493
C156     C     -0.361584     0.309738     0.225245
C157     C      0.361584     0.171322    -0.413171
C158     C      0.084493    -0.225245    -0.086829
C159     C      0.415507     0.328678    -0.309738
C160     C      0.138416    -0.274755    -0.190262
C161     C      0.171322    -0.413171     0.361584
C162     C     -0.413171     0.361584     0.171322
C163     C     -0.274755    -0.190262     0.138416
C164     C     -0.086829     0.084493    -0.225245
C165     C     -0.225245    -0.086829     0.084493
C166     C     -0.309738     0.415507     0.328678
C167     C      0.328678    -0.309738     0.415507
C168     C     -0.190262     0.138416    -0.274755
H145     H     -0.484651    -0.096706     0.061859
H146     H      0.341435     0.453490     0.438141
H147     H     -0.015349     0.046510     0.387945
H148     H      0.158565    -0.403294     0.112055
H149     H      0.061859    -0.484651    -0.096706
H150     H     -0.096706     0.061859    -0.484651
H151     H      0.112055     0.158565    -0.403294
H152     H      0.453490     0.438141     0.341435
H153     H      0.438141     0.341435     0.453490
H154     H      0.046510     0.387945    -0.015349
H155     H      0.387945    -0.015349     0.046510
H156     H     -0.403294     0.112055     0.158565
H157     H      0.403294     0.015349    -0.438141
H158     H     -0.046510    -0.158565    -0.061859
H159     H     -0.453490     0.484651    -0.112055
H160     H      0.096706    -0.341435    -0.387945
H161     H      0.015349    -0.438141     0.403294
H162     H     -0.438141     0.403294     0.015349
H163     H     -0.341435    -0.387945     0.096706
H164     H     -0.061859    -0.046510    -0.158565
H165     H     -0.158565    -0.061859    -0.046510
H166     H     -0.112055    -0.453490     0.484651
H167     H      0.484651    -0.112055    -0.453490
H168     H     -0.387945     0.096706    -0.341435
C169     C     -0.362895    -0.019283     0.102682
C170     C      0.378035    -0.465577     0.397318
C171     C     -0.137105    -0.034423     0.343612
C172     C      0.121965    -0.480717     0.156388
C173     C      0.102682    -0.362895    -0.019283
C174     C     -0.019283     0.102682    -0.362895
C175     C      0.156388     0.121965    -0.480717
C176     C     -0.465577     0.397318     0.378035
C177     C      0.397318     0.378035    -0.465577
C178     C     -0.034423     0.343612    -0.137105
C179     C      0.343612    -0.137105    -0.034423
C180     C     -0.480717     0.156388     0.121965
C181     C      0.480717     0.137105    -0.397318
C182     C      0.034423    -0.121965    -0.102682
C183     C      0.465577     0.362895    -0.156388
C184     C      0.019283    -0.378035    -0.343612
C185     C      0.137105    -0.397318     0.480717
C186     C     -0.397318     0.480717     0.137105
C187     C     -0.378035    -0.343612     0.019283
C188     C     -0.102682     0.034423    -0.121965
C189     C     -0.121965    -0.102682     0.034423
C190     C     -0.156388     0.465577     0.362895
C191     C      0.362895    -0.156388     0.465577
C192     C     -0.343612     0.019283    -0.378035
C193     C     -0.436980    -0.031620     0.081746
C194     C      0.386634     0.481274     0.418254
C195     C     -0.063020     0.018726     0.405360
C196     C      0.113366    -0.468380     0.094640
C197     C      0.081746    -0.436980    -0.031620
C198     C     -0.031620     0.081746    -0.436980
C199     C      0.094640     0.113366    -0.468380
C200     C      0.481274     0.418254     0.386634
C201     C      0.418254     0.386634     0.481274
C202     C      0.018726     0.405360    -0.063020
C203     C      0.405360    -0.063020     0.018726
C204     C     -0.468380     0.094640     0.113366
C205     C      0.468380     0.063020    -0.418254
C206     C     -0.018726    -0.113366    -0.081746
C207     C     -0.481274     0.436980    -0.094640
C208     C      0.031620    -0.386634    -0.405360
C209     C      0.063020    -0.418254     0.468380
C210     C     -0.418254     0.468380     0.063020
C211     C     -0.386634    -0.405360     0.031620
C212     C     -0.081746    -0.018726    -0.113366
C213     C     -0.113366    -0.081746    -0.018726
C214     C     -0.094640    -0.481274     0.436980
C215     C      0.436980    -0.094640    -0.481274
C216     C     -0.405360     0.031620    -0.386634
H169     H     -0.431259    -0.122870     0.075680
H170     H      0.301450     0.493060     0.424320
H171     H     -0.068741     0.006940     0.308389
H172     H      0.198550    -0.377130     0.191611
H173     H      0.075680    -0.431259    -0.122870
H174     H     -0.122870     0.075680    -0.431259
H175     H      0.191611     0.198550    -0.377130
H176     H      0.493060     0.424320     0.301450
H177     H      0.424320     0.301450     0.493060
H178     H      0.006940     0.308389    -0.068741
H179     H      0.308389    -0.068741     0.006940
H180     H     -0.377130     0.191611     0.198550
H181     H      0.377130     0.068741    -0.424320
H182     H     -0.006940    -0.198550    -0.075680
H183     H     -0.493060     0.431259    -0.191611
H184     H      0.122870    -0.301450    -0.308389
H185     H      0.068741    -0.424320     0.377130
H186     H     -0.424320     0.377130     0.068741
H187     H     -0.301450    -0.308389     0.122870
H188     H     -0.075680    -0.006940    -0.198550
H189     H     -0.198550    -0.075680    -0.006940
H190     H     -0.191611    -0.493060     0.431259
H191     H      0.431259    -0.191611    -0.493060
H192     H     -0.308389     0.122870    -0.301450
C217     C     -0.420415    -0.089723     0.080581
C218     C      0.329696     0.499004     0.419419
C219     C     -0.079585     0.000996     0.330692
C220     C      0.170304    -0.410277     0.169308
C221     C      0.080581    -0.420415    -0.089723
C222     C     -0.089723     0.080581    -0.420415
C223     C      0.169308     0.170304    -0.410277
C224     C      0.499004     0.419419     0.329696
C225     C      0.419419     0.329696     0.499004
C226     C      0.000996     0.330692    -0.079585
C227     C      0.330692    -0.079585     0.000996
C228     C     -0.410277     0.169308     0.170304
C229     C      0.410277     0.079585    -0.419419
C230     C     -0.000996    -0.170304    -0.080581
C231     C     -0.499004     0.420415    -0.169308
C232     C      0.089723    -0.329696    -0.330692
C233     C      0.079585    -0.419419     0.410277
C234     C     -0.419419     0.410277     0.079585
C235     C     -0.329696    -0.330692     0.089723
C236     C     -0.080581    -0.000996    -0.170304
C237     C     -0.170304    -0.080581    -0.000996
C238     C     -0.169308    -0.499004     0.420415
C239     C      0.420415    -0.169308    -0.499004
C240     C     -0.330692     0.089723    -0.329696
C241     C     -0.376126    -0.062318     0.095092
C242     C      0.342590    -0.471217     0.404908
C243     C     -0.123874    -0.028783     0.313807
C244     C      0.157410    -0.437682     0.186193
C245     C      0.095092    -0.376126    -0.062318
C246     C     -0.062318     0.095092    -0.376126
C247     C      0.186193     0.157410    -0.437682
C248     C     -0.471217     0.404908     0.342590
C249     C      0.404908     0.342590    -0.471217
C250     C     -0.028783     0.313807    -0.123874
C251     C      0.313807    -0.123874    -0.028783
C252     C     -0.437682     0.186193     0.157410
C253     C      0.437682     0.123874    -0.404908
C254     C      0.028783    -0.157410    -0.095092
C255     C      0.471217     0.376126    -0.186193
C256     C      0.062318    -0.342590    -0.313807
C257     C      0.123874    -0.404908     0.437682
C258     C     -0.404908     0.437682     0.123874
C259     C     -0.342590    -0.313807     0.062318
C260     C     -0.095092     0.028783    -0.157410
C261     C     -0.157410    -0.095092     0.028783
C262     C     -0.186193     0.471217     0.376126
C263     C      0.376126    -0.186193     0.471217
C264     C     -0.313807     0.062318    -0.342590
C265     C     -0.392616    -0.004115     0.096765
C266     C      0.399120    -0.489381     0.403235
C267     C     -0.107384    -0.010619     0.388501
C268     C      0.100880    -0.495885     0.111499
C269     C      0.096765    -0.392616    -0.004115
C270     C     -0.004115     0.096765    -0.392616
C271     C      0.111499     0.100880    -0.495885
C272     C     -0.489381     0.403235     0.399120
C273     C      0.403235     0.399120    -0.489381
C274     C     -0.010619     0.388501    -0.107384
C275     C      0.388501    -0.107384    -0.010619
C276     C     -0.495885     0.111499     0.100880
C277     C      0.495885     0.107384    -0.403235
C278     C      0.010619    -0.100880    -0.096765
C279     C      0.489381     0.392616    -0.111499
C280     C      0.004115    -0.399120    -0.388501
C281     C      0.107384    -0.403235     0.495885
C282     C     -0.403235     0.495885     0.107384
C283     C     -0.399120    -0.388501     0.004115
C284     C     -0.096765     0.010619    -0.100880
C285     C     -0.100880    -0.096765     0.010619
C286     C     -0.111499     0.489381     0.392616
C287     C      0.392616    -0.111499     0.489381
C288     C     -0.388501     0.004115    -0.399120
B1       B     -0.470088    -0.014963     0.075216
B2       B      0.409821     0.454696     0.424784
B3       B     -0.029912     0.045304     0.455125
B4       B      0.090179    -0.485037     0.044875
B5       B      0.075216    -0.470088    -0.014963
B6       B     -0.014963     0.075216    -0.470088
B7       B      0.044875     0.090179    -0.485037
B8       B      0.454696     0.424784     0.409821
B9       B      0.424784     0.409821     0.454696
B10      B      0.045304     0.455125    -0.029912
B11      B      0.455125    -0.029912     0.045304
B12      B     -0.485037     0.044875     0.090179
B13      B      0.485037     0.029912    -0.424784
B14      B     -0.045304    -0.090179    -0.075216
B15      B     -0.454696     0.470088    -0.044875
B16      B      0.014963    -0.409821    -0.455125
B17      B      0.029912    -0.424784     0.485037
B18      B     -0.424784     0.485037     0.029912
B19      B     -0.409821    -0.455125     0.014963
B20      B     -0.075216    -0.045304    -0.090179
B21      B     -0.090179    -0.075216    -0.045304
B22      B     -0.044875    -0.454696     0.470088
B23      B      0.470088    -0.044875    -0.454696
B24      B     -0.455125     0.014963    -0.409821
C289     C     -0.125000     0.125000    -0.250000
C290     C     -0.375000     0.375000     0.250000
C291     C     -0.250000    -0.125000     0.125000
C292     C      0.125000    -0.250000    -0.125000
C293     C      0.250000    -0.375000     0.375000
C294     C      0.375000     0.250000    -0.375000
