data_tryCOF102_sym_BULK_OPTGEOM_DZ_optimized

_cell_length_a    22.475474
_cell_length_b    22.475474
_cell_length_c    22.475474
_cell_angle_alpha 109.471221
_cell_angle_beta  109.471221
_cell_angle_gamma 109.471221

_symmetry_space_group_name_H-M  'P 1'
_symmetry_Int_Tables_number     1

loop_
_symmetry_equiv_pos_as_xyz
  'x, y, z'

loop_
_atom_site_label
_atom_site_type_symbol
_atom_site_fract_x
_atom_site_fract_y
_atom_site_fract_z
C1       C      0.277184    -0.457675     0.424292
C2       C     -0.381967    -0.147109     0.075708
C3       C      0.222816    -0.352891     0.265141
C4       C     -0.118033    -0.042325     0.234859
C5       C      0.424292     0.277184    -0.457675
C6       C     -0.457675     0.424292     0.277184
C7       C      0.234859    -0.118033    -0.042325
C8       C     -0.147109     0.075708    -0.381967
C9       C      0.075708    -0.381967    -0.147109
C10      C     -0.352891     0.265141     0.222816
C11      C      0.265141     0.222816    -0.352891
C12      C     -0.042325     0.234859    -0.118033
C13      C      0.042325    -0.222816    -0.075708
C14      C      0.352891     0.118033    -0.424292
C15      C      0.147109    -0.277184    -0.234859
C16      C      0.457675     0.381967    -0.265141
C17      C     -0.222816    -0.075708     0.042325
C18      C     -0.075708     0.042325    -0.222816
C19      C      0.381967    -0.265141     0.457675
C20      C     -0.424292     0.352891     0.118033
C21      C      0.118033    -0.424292     0.352891
C22      C     -0.234859     0.147109    -0.277184
C23      C     -0.277184    -0.234859     0.147109
C24      C     -0.265141     0.457675     0.381967
H1       H      0.242704    -0.455945     0.448704
H2       H     -0.404649    -0.206000     0.051296
H3       H      0.257296    -0.294000     0.301351
H4       H     -0.095351    -0.044055     0.198649
H5       H      0.448704     0.242704    -0.455945
H6       H     -0.455945     0.448704     0.242704
H7       H      0.198649    -0.095351    -0.044055
H8       H     -0.206000     0.051296    -0.404649
H9       H      0.051296    -0.404649    -0.206000
H10      H     -0.294000     0.301351     0.257296
H11      H      0.301351     0.257296    -0.294000
H12      H     -0.044055     0.198649    -0.095351
H13      H      0.044055    -0.257296    -0.051296
H14      H      0.294000     0.095351    -0.448704
H15      H      0.206000    -0.242704    -0.198649
H16      H      0.455945     0.404649    -0.301351
H17      H     -0.257296    -0.051296     0.044055
H18      H     -0.051296     0.044055    -0.257296
H19      H      0.404649    -0.301351     0.455945
H20      H     -0.448704     0.294000     0.095351
H21      H      0.095351    -0.448704     0.294000
H22      H     -0.198649     0.206000    -0.242704
H23      H     -0.242704    -0.198649     0.206000
H24      H     -0.301351     0.455945     0.404649
C25      C      0.285624    -0.420398     0.385937
C26      C     -0.306335    -0.100313     0.114063
C27      C      0.214376    -0.399687     0.293978
C28      C     -0.193665    -0.079602     0.206022
C29      C      0.385937     0.285624    -0.420398
C30      C     -0.420398     0.385937     0.285624
C31      C      0.206022    -0.193665    -0.079602
C32      C     -0.100313     0.114063    -0.306335
C33      C      0.114063    -0.306335    -0.100313
C34      C     -0.399687     0.293978     0.214376
C35      C      0.293978     0.214376    -0.399687
C36      C     -0.079602     0.206022    -0.193665
C37      C      0.079602    -0.214376    -0.114063
C38      C      0.399687     0.193665    -0.385937
C39      C      0.100313    -0.285624    -0.206022
C40      C      0.420398     0.306335    -0.293978
C41      C     -0.214376    -0.114063     0.079602
C42      C     -0.114063     0.079602    -0.214376
C43      C      0.306335    -0.293978     0.420398
C44      C     -0.385937     0.399687     0.193665
C45      C      0.193665    -0.385937     0.399687
C46      C     -0.206022     0.100313    -0.285624
C47      C     -0.285624    -0.206022     0.100313
C48      C     -0.293978     0.420398     0.306335
C49      C      0.328175    -0.430189     0.353676
C50      C     -0.283865    -0.025501     0.146324
C51      C      0.171825    -0.474499     0.241636
C52      C     -0.216135    -0.069811     0.258364
C53      C      0.353676     0.328175    -0.430189
C54      C     -0.430189     0.353676     0.328175
C55      C      0.258364    -0.216135    -0.069811
C56      C     -0.025501     0.146324    -0.283865
C57      C      0.146324    -0.283865    -0.025501
C58      C     -0.474499     0.241636     0.171825
C59      C      0.241636     0.171825    -0.474499
C60      C     -0.069811     0.258364    -0.216135
C61      C      0.069811    -0.171825    -0.146324
C62      C      0.474499     0.216135    -0.353676
C63      C      0.025501    -0.328175    -0.258364
C64      C      0.430189     0.283865    -0.241636
C65      C     -0.171825    -0.146324     0.069811
C66      C     -0.146324     0.069811    -0.171825
C67      C      0.283865    -0.241636     0.430189
C68      C     -0.353676     0.474499     0.216135
C69      C      0.216135    -0.353676     0.474499
C70      C     -0.258364     0.025501    -0.328175
C71      C     -0.328175    -0.258364     0.025501
C72      C     -0.241636     0.430189     0.283865
H25      H      0.334163    -0.406191     0.319454
H26      H     -0.225645     0.014709     0.180546
H27      H      0.165837     0.485291     0.259646
H28      H     -0.274355    -0.093809     0.240354
H29      H      0.319454     0.334163    -0.406191
H30      H     -0.406191     0.319454     0.334163
H31      H      0.240354    -0.274355    -0.093809
H32      H      0.014709     0.180546    -0.225645
H33      H      0.180546    -0.225645     0.014709
H34      H      0.485291     0.259646     0.165837
H35      H      0.259646     0.165837     0.485291
H36      H     -0.093809     0.240354    -0.274355
H37      H      0.093809    -0.165837    -0.180546
H38      H     -0.485291     0.274355    -0.319454
H39      H     -0.014709    -0.334163    -0.240354
H40      H      0.406191     0.225645    -0.259646
H41      H     -0.165837    -0.180546     0.093809
H42      H     -0.180546     0.093809    -0.165837
H43      H      0.225645    -0.259646     0.406191
H44      H     -0.319454    -0.485291     0.274355
H45      H      0.274355    -0.319454    -0.485291
H46      H     -0.240354    -0.014709    -0.334163
H47      H     -0.334163    -0.240354    -0.014709
H48      H     -0.259646     0.406191     0.225645
N1       N      0.360769    -0.468578     0.360682
N2       N     -0.329260     0.000087     0.139318
N3       N      0.139231     0.499913     0.170653
N4       N     -0.170740    -0.031422     0.329347
N5       N      0.360682     0.360769    -0.468578
N6       N     -0.468578     0.360682     0.360769
N7       N      0.329347    -0.170740    -0.031422
N8       N      0.000087     0.139318    -0.329260
N9       N      0.139318    -0.329260     0.000087
N10      N      0.499913     0.170653     0.139231
N11      N      0.170653     0.139231     0.499913
N12      N     -0.031422     0.329347    -0.170740
N13      N      0.031422    -0.139231    -0.139318
N14      N     -0.499913     0.170740    -0.360682
N15      N     -0.000087    -0.360769    -0.329347
N16      N      0.468578     0.329260    -0.170653
N17      N     -0.139231    -0.139318     0.031422
N18      N     -0.139318     0.031422    -0.139231
N19      N      0.329260    -0.170653     0.468578
N20      N     -0.360682    -0.499913     0.170740
N21      N      0.170740    -0.360682    -0.499913
N22      N     -0.329347    -0.000087    -0.360769
N23      N     -0.360769    -0.329347    -0.000087
N24      N     -0.170653     0.468578     0.329260
C73      C      0.350116     0.499473     0.400866
C74      C     -0.401393    -0.050750     0.099134
C75      C      0.149884    -0.449250     0.149356
C76      C     -0.098607     0.000527     0.350644
C77      C      0.400866     0.350116     0.499473
C78      C      0.499473     0.400866     0.350116
C79      C      0.350644    -0.098607     0.000527
C80      C     -0.050750     0.099134    -0.401393
C81      C      0.099134    -0.401393    -0.050750
C82      C     -0.449250     0.149356     0.149884
C83      C      0.149356     0.149884    -0.449250
C84      C      0.000527     0.350644    -0.098607
C85      C     -0.000527    -0.149884    -0.099134
C86      C      0.449250     0.098607    -0.400866
C87      C      0.050750    -0.350116    -0.350644
C88      C     -0.499473     0.401393    -0.149356
C89      C     -0.149884    -0.099134    -0.000527
C90      C     -0.099134    -0.000527    -0.149884
C91      C      0.401393    -0.149356    -0.499473
C92      C     -0.400866     0.449250     0.098607
C93      C      0.098607    -0.400866     0.449250
C94      C     -0.350644     0.050750    -0.350116
C95      C     -0.350116    -0.350644     0.050750
C96      C     -0.149356    -0.499473     0.401393
C97      C      0.384468     0.458431     0.409544
C98      C     -0.451114    -0.025076     0.090456
C99      C      0.115532    -0.474924     0.073963
C100     C     -0.048886     0.041569     0.426037
C101     C      0.409544     0.384468     0.458431
C102     C      0.458431     0.409544     0.384468
C103     C      0.426037    -0.048886     0.041569
C104     C     -0.025076     0.090456    -0.451114
C105     C      0.090456    -0.451114    -0.025076
C106     C     -0.474924     0.073963     0.115532
C107     C      0.073963     0.115532    -0.474924
C108     C      0.041569     0.426037    -0.048886
C109     C     -0.041569    -0.115532    -0.090456
C110     C      0.474924     0.048886    -0.409544
C111     C      0.025076    -0.384468    -0.426037
C112     C     -0.458431     0.451114    -0.073963
C113     C     -0.115532    -0.090456    -0.041569
C114     C     -0.090456    -0.041569    -0.115532
C115     C      0.451114    -0.073963    -0.458431
C116     C     -0.409544     0.474924     0.048886
C117     C      0.048886    -0.409544     0.474924
C118     C     -0.426037     0.025076    -0.384468
C119     C     -0.384468    -0.426037     0.025076
C120     C     -0.073963    -0.458431     0.451114
N25      N      0.308451    -0.497157     0.432400
N26      N     -0.429558    -0.123949     0.067600
N27      N      0.191549    -0.376051     0.194392
N28      N     -0.070442    -0.002843     0.305608
N29      N      0.432400     0.308451    -0.497157
N30      N     -0.497157     0.432400     0.308451
N31      N      0.305608    -0.070442    -0.002843
N32      N     -0.123949     0.067600    -0.429558
N33      N      0.067600    -0.429558    -0.123949
N34      N     -0.376051     0.194392     0.191549
N35      N      0.194392     0.191549    -0.376051
N36      N     -0.002843     0.305608    -0.070442
N37      N      0.002843    -0.191549    -0.067600
N38      N      0.376051     0.070442    -0.432400
N39      N      0.123949    -0.308451    -0.305608
N40      N      0.497157     0.429558    -0.194392
N41      N     -0.191549    -0.067600     0.002843
N42      N     -0.067600     0.002843    -0.191549
N43      N      0.429558    -0.194392     0.497157
N44      N     -0.432400     0.376051     0.070442
N45      N      0.070442    -0.432400     0.376051
N46      N     -0.305608     0.123949    -0.308451
N47      N     -0.308451    -0.305608     0.123949
N48      N     -0.194392     0.497157     0.429558
N49      N      0.425402     0.449827     0.377804
N50      N     -0.427977     0.047598     0.122196
N51      N      0.074598     0.452402     0.024425
N52      N     -0.072023     0.050173     0.475575
N53      N      0.377804     0.425402     0.449827
N54      N      0.449827     0.377804     0.425402
N55      N      0.475575    -0.072023     0.050173
N56      N      0.047598     0.122196    -0.427977
N57      N      0.122196    -0.427977     0.047598
N58      N      0.452402     0.024425     0.074598
N59      N      0.024425     0.074598     0.452402
N60      N      0.050173     0.475575    -0.072023
N61      N     -0.050173    -0.074598    -0.122196
N62      N     -0.452402     0.072023    -0.377804
N63      N     -0.047598    -0.425402    -0.475575
N64      N     -0.449827     0.427977    -0.024425
N65      N     -0.074598    -0.122196    -0.050173
N66      N     -0.122196    -0.050173    -0.074598
N67      N      0.427977    -0.024425    -0.449827
N68      N     -0.377804    -0.452402     0.072023
N69      N      0.072023    -0.377804    -0.452402
N70      N     -0.475575    -0.047598    -0.425402
N71      N     -0.425402    -0.475575    -0.047598
N72      N     -0.024425    -0.449827     0.427977
H49      H      0.430540     0.473379     0.346822
H50      H     -0.373443     0.083718     0.153178
H51      H      0.069460     0.416282     0.042838
H52      H     -0.126557     0.026621     0.457162
H53      H      0.346822     0.430540     0.473379
H54      H      0.473379     0.346822     0.430540
H55      H      0.457162    -0.126557     0.026621
H56      H      0.083718     0.153178    -0.373443
H57      H      0.153178    -0.373443     0.083718
H58      H      0.416282     0.042838     0.069460
H59      H      0.042838     0.069460     0.416282
H60      H      0.026621     0.457162    -0.126557
H61      H     -0.026621    -0.069460    -0.153178
H62      H     -0.416282     0.126557    -0.346822
H63      H     -0.083718    -0.430540    -0.457162
H64      H     -0.473379     0.373443    -0.042838
H65      H     -0.069460    -0.153178    -0.026621
H66      H     -0.153178    -0.026621    -0.069460
H67      H      0.373443    -0.042838    -0.473379
H68      H     -0.346822    -0.416282     0.126557
H69      H      0.126557    -0.346822    -0.416282
H70      H     -0.457162    -0.083718    -0.430540
H71      H     -0.430540    -0.457162    -0.083718
H72      H     -0.042838    -0.473379     0.373443
C121     C      0.250000    -0.375000     0.375000
C122     C     -0.250000    -0.125000     0.125000
C123     C      0.375000     0.250000    -0.375000
C124     C     -0.375000     0.375000     0.250000
C125     C      0.125000    -0.250000    -0.125000
C126     C     -0.125000     0.125000    -0.250000
