data_IRCOF102_BULK_OPTGEOM_DZ_optimized

_cell_length_a    42.955631
_cell_length_b    42.955631
_cell_length_c    42.955631
_cell_angle_alpha 90.000000
_cell_angle_beta  90.000000
_cell_angle_gamma 90.000000

_space_group_name_H-M_alt       'I -4 3 d'
_space_group_IT_number          220

loop_
_atom_site_label
_atom_site_type_symbol
_atom_site_fract_x
_atom_site_fract_y
_atom_site_fract_z
O1       O      0.210053    -0.195275     0.260431
H1       H      0.049110    -0.208302     0.118102
H2       H      0.109203    -0.280245     0.222018
H3       H      0.095876    -0.203198     0.150390
H4       H      0.014119    -0.278596     0.179640
H5       H      0.153924    -0.272298     0.257309
H6       H      0.060078    -0.272257     0.213170
C1       C      0.028534    -0.244580     0.145792
C2       C      0.032412    -0.262350     0.172908
C3       C      0.058413    -0.258813     0.191739
C4       C      0.077914    -0.219722     0.157247
C5       C      0.081877    -0.237391     0.184295
C6       C      0.150987    -0.200698     0.224463
C7       C      0.051708    -0.223026     0.138554
H7       H      0.163010    -0.178361     0.224930
C8       C      0.120450    -0.257547     0.223164
C9       C      0.161779    -0.224795     0.243581
H8       H      0.116331    -0.185073     0.192053
C10      C      0.125032    -0.204616     0.205657
C11      C      0.109341    -0.233211     0.204465
C12      C      0.145846    -0.253224     0.242656
B1       B      0.189921    -0.219831     0.265204
C13      C      0.250000     0.375000    -0.000000
