data_MSUCOF-4-NiCp_BULK_OPTGEOM_DZ_optimized

_cell_length_a    39.459060
_cell_length_b    39.459060
_cell_length_c    39.459060
_cell_angle_alpha 90.000000
_cell_angle_beta  90.000000
_cell_angle_gamma 90.000000

_space_group_name_H-M_alt       'I -4 3 d'
_space_group_IT_number          220

loop_
_atom_site_label
_atom_site_type_symbol
_atom_site_fract_x
_atom_site_fract_y
_atom_site_fract_z
H1       H      0.193201     0.171036    -0.111256
H2       H      0.133340     0.167225    -0.205048
H3       H      0.165351     0.227771    -0.202136
H4       H      0.154123     0.130976    -0.150391
C1       C      0.180993     0.178471    -0.134707
C2       C      0.185590     0.209161    -0.152171
C3       C      0.161067     0.157016    -0.156027
Ni1      Ni     0.202018     0.170868    -0.184822
H5       H      0.248832     0.213768    -0.206432
C4       C      0.149580     0.176238    -0.184795
H6       H      0.263725     0.158867    -0.169553
C5       C      0.228443     0.132351    -0.205953
C6       C      0.239999     0.188381    -0.212264
C7       C      0.248433     0.159262    -0.192420
H7       H      0.227607     0.106608    -0.196216
H8       H      0.201148     0.230634    -0.144556
O1       O      0.208093     0.251051    -0.247850
H9       H      0.130323     0.055676    -0.205553
H10      H      0.184719     0.126442    -0.317809
C8       C      0.165868     0.207925    -0.183110
H11      H      0.174794     0.011850    -0.294417
H12      H      0.208074     0.064524    -0.303927
H13      H      0.197913     0.187008    -0.325242
H14      H      0.165497     0.107273    -0.213775
C9       C      0.171849     0.033443    -0.277424
C10      C      0.187700     0.090012    -0.260117
C11      C      0.148308     0.031046    -0.250869
C12      C      0.147339     0.057281    -0.227195
C13      C      0.217247     0.194026    -0.274490
C14      C      0.218594     0.141703    -0.240639
C15      C      0.190624     0.062724    -0.282595
C16      C      0.202734     0.123572    -0.266431
C17      C      0.166984     0.086225    -0.231672
C18      C      0.204252     0.174621    -0.301395
C19      C      0.225579     0.176759    -0.244676
B1       B      0.223635     0.232609    -0.273318
C20      C      0.197078     0.140374    -0.297424
C21      C      0.000000     0.250000     0.375000
