data_MSUCOF-4-FeCp_BULK_OPTGEOM_DZ_optimized

_cell_length_a    43.072089
_cell_length_b    43.072089
_cell_length_c    43.072089
_cell_angle_alpha 90.000000
_cell_angle_beta  90.000000
_cell_angle_gamma 90.000000

_space_group_name_H-M_alt       'I -4 3 d'
_space_group_IT_number          220

loop_
_atom_site_label
_atom_site_type_symbol
_atom_site_fract_x
_atom_site_fract_y
_atom_site_fract_z
H1       H     -0.134982     0.149227     0.179180
H2       H     -0.231777     0.146943     0.148759
H3       H     -0.227735     0.185645     0.197590
H4       H     -0.174239     0.123904     0.137467
C1       C     -0.159911     0.152672     0.178400
C2       C     -0.177526     0.172131     0.198639
C3       C     -0.180697     0.139432     0.156223
Fe1      Fe    -0.181730     0.186482     0.154303
H5       H     -0.155773     0.241797     0.175299
C4       C     -0.211072     0.150953     0.162574
H6       H     -0.124740     0.208608     0.132020
C5       C     -0.171328     0.200853     0.110626
C6       C     -0.165725     0.230594     0.155072
C7       C     -0.149520     0.213107     0.132201
H7       H     -0.165942     0.186504     0.090680
H8       H     -0.168335     0.186405     0.217235
O1       O     -0.197264     0.258616     0.211833
H9       H     -0.208529     0.118346     0.049133
H10      H     -0.280252     0.215410     0.113213
C8       C     -0.209070     0.171176     0.188773
H11      H     -0.278985     0.179179     0.013835
H12      H     -0.271923     0.213677     0.059128
H13      H     -0.273482     0.249930     0.158721
H14      H     -0.202769     0.152028     0.095268
C9       C     -0.262580     0.172844     0.032031
C10      C     -0.236742     0.185275     0.080468
C11      C     -0.244752     0.145810     0.028432
C12      C     -0.223084     0.138868     0.051471
C13      C     -0.224519     0.244384     0.161746
C14      C     -0.201644     0.211641     0.119487
C15      C     -0.258673     0.192194     0.057473
C16      C     -0.232184     0.205807     0.107339
C17      C     -0.219291     0.158094     0.077119
C18      C     -0.253026     0.239326     0.148211
C19      C     -0.198044     0.230386     0.147118
B1       B     -0.221218     0.264045     0.191289
C20      C     -0.256908     0.220033     0.121792
C21      C      0.375000     0.000000     0.250000
