data_MSUCOF-4-MnCp_BULK_OPTGEOM_DZ_optimized

_cell_length_a    43.028384
_cell_length_b    43.028384
_cell_length_c    43.028384
_cell_angle_alpha 90.000000
_cell_angle_beta  90.000000
_cell_angle_gamma 90.000000

_space_group_name_H-M_alt       'I -4 3 d'
_space_group_IT_number          220

loop_
_atom_site_label
_atom_site_type_symbol
_atom_site_fract_x
_atom_site_fract_y
_atom_site_fract_z
H1       H      0.150582     0.181593    -0.133055
H2       H      0.138593     0.151347    -0.229154
H3       H      0.178709     0.198957    -0.229107
H4       H      0.121073     0.140348    -0.170022
C1       C      0.152569     0.180155    -0.158140
C2       C      0.170872     0.199981    -0.177631
C3       C      0.136716     0.158573    -0.177731
Mn1      Mn     0.185755     0.154740    -0.181599
H5       H      0.243093     0.174509    -0.156358
C4       C      0.145297     0.164826    -0.208890
H6       H      0.210175     0.130727    -0.125249
C5       C      0.202016     0.109852    -0.172107
C6       C      0.231436     0.154533    -0.166359
C7       C      0.213991     0.131501    -0.150160
H7       H      0.188190     0.089440    -0.166941
H8       H      0.185688     0.218921    -0.170071
O1       O      0.258175     0.211973    -0.197741
H9       H      0.118384     0.049588    -0.208960
H10      H      0.215281     0.113493    -0.281015
C8       C      0.166355     0.190179    -0.208924
H11      H      0.179184     0.013559    -0.279214
H12      H      0.213907     0.058793    -0.272394
H13      H      0.249580     0.159192    -0.274293
H14      H      0.152294     0.095690    -0.203436
C9       C      0.172911     0.031893    -0.262899
C10      C      0.185591     0.080429    -0.237256
C11      C      0.145853     0.028496    -0.245022
C12      C      0.138961     0.051748    -0.223510
C13      C      0.244685     0.161586    -0.225072
C14      C      0.213183     0.118640    -0.202242
C15      C      0.192399     0.057297    -0.259113
C16      C      0.206457     0.107123    -0.232720
C17      C      0.158308     0.077366    -0.219849
C18      C      0.239480     0.148228    -0.253795
C19      C      0.231700     0.146258    -0.198611
B1       B      0.263905     0.191488    -0.221704
C20      C      0.220392     0.121808    -0.257648
C21      C      0.000000     0.250000     0.375000
