data_MSUCOF-4-CoCp_BULK_OPTGEOM_DZ_optimized

_cell_length_a    43.068849
_cell_length_b    43.068849
_cell_length_c    43.068849
_cell_angle_alpha 90.000000
_cell_angle_beta  90.000000
_cell_angle_gamma 90.000000

_space_group_name_H-M_alt       'I -4 3 d'
_space_group_IT_number          220

loop_
_atom_site_label
_atom_site_type_symbol
_atom_site_fract_x
_atom_site_fract_y
_atom_site_fract_z
H1       H      0.144443     0.186813    -0.134545
H2       H      0.141924     0.152029    -0.230151
H3       H      0.181412     0.200439    -0.228372
H4       H      0.119928     0.142965    -0.171851
C1       C      0.148728     0.184179    -0.159190
C2       C      0.169496     0.202214    -0.177541
C3       C      0.136223     0.160875    -0.178826
Co1      Co     0.184275     0.156917    -0.179991
H5       H      0.241787     0.175648    -0.155864
C4       C      0.147332     0.166052    -0.209927
H6       H      0.209586     0.131954    -0.124338
C5       C      0.199120     0.112519    -0.171259
C6       C      0.229413     0.156099    -0.165798
C7       C      0.212827     0.132896    -0.149290
H7       H      0.185055     0.092365    -0.165853
H8       H      0.183534     0.221477    -0.169387
O1       O      0.258961     0.211555    -0.196896
H9       H      0.117617     0.049336    -0.209031
H10      H      0.216757     0.112208    -0.279877
C8       C      0.167681     0.191717    -0.209132
H11      H      0.179698     0.013909    -0.278296
H12      H      0.213851     0.059302    -0.270913
H13      H      0.251258     0.157499    -0.273290
H14      H      0.150523     0.095660    -0.203189
C9       C      0.173011     0.032132    -0.262057
C10      C      0.184867     0.080881    -0.236343
C11      C      0.145734     0.028470    -0.244621
C12      C      0.138356     0.051677    -0.223282
C13      C      0.244479     0.161630    -0.224292
C14      C      0.210877     0.120420    -0.201826
C15      C      0.192174     0.057690    -0.257974
C16      C      0.205513     0.107672    -0.231742
C17      C      0.157342     0.077505    -0.219405
C18      C      0.239976     0.147475    -0.252955
C19      C      0.229927     0.147564    -0.198330
B1       B      0.264280     0.190995    -0.220881
C20      C      0.220760     0.121443    -0.256669
C21      C     -0.000000     0.250000     0.375000
