data_MSUCOF-4_BULK_OPT_DZ_optimized

_cell_length_a    42.974269
_cell_length_b    42.974269
_cell_length_c    42.974269
_cell_angle_alpha 90.000000
_cell_angle_beta  90.000000
_cell_angle_gamma 90.000000

_space_group_name_H-M_alt       'I -4 3 d'
_space_group_IT_number          220

loop_
_atom_site_label
_atom_site_type_symbol
_atom_site_fract_x
_atom_site_fract_y
_atom_site_fract_z
H1       H     -0.158135     0.237213     0.179336
H2       H     -0.126859     0.206083     0.135292
C1       C     -0.173131     0.198626     0.113882
C2       C     -0.168023     0.225856     0.159030
C3       C     -0.151879     0.209499     0.136080
H3       H     -0.167510     0.186439     0.092456
O1       O     -0.199299     0.256263     0.215188
H4       H     -0.209918     0.116670     0.050006
H5       H     -0.282069     0.214545     0.114075
H6       H     -0.277727     0.180318     0.013834
H7       H     -0.271326     0.213562     0.060219
H8       H     -0.275895     0.247437     0.160607
H9       H     -0.205337     0.148686     0.097424
C4       C     -0.261937     0.173155     0.032343
C5       C     -0.237545     0.183681     0.082152
C6       C     -0.244714     0.145663     0.028660
C7       C     -0.223996     0.137589     0.052318
C8       C     -0.226409     0.240157     0.165058
C9       C     -0.204132     0.207996     0.123301
C10      C     -0.258430     0.191802     0.058482
C11      C     -0.233334     0.203390     0.109804
C12      C     -0.220766     0.156008     0.078699
C13      C     -0.255529     0.236332     0.150353
C14      C     -0.200907     0.225605     0.151186
B1       B     -0.223173     0.260696     0.194234
C15      C     -0.258998     0.218213     0.123924
C16      C      0.375000    -0.000000     0.250000
