data_Staggered_MSUCOF-4-NiCp_BULK_OPTGEOM_DZ_optimized

_cell_length_a    39.462489
_cell_length_b    39.462489
_cell_length_c    39.462489
_cell_angle_alpha 90.000000
_cell_angle_beta  90.000000
_cell_angle_gamma 90.000000

_space_group_name_H-M_alt       'I -4 3 d'
_space_group_IT_number          220

loop_
_atom_site_label
_atom_site_type_symbol
_atom_site_fract_x
_atom_site_fract_y
_atom_site_fract_z
H1       H      0.201154     0.230642    -0.144564
H2       H      0.154147     0.130986    -0.150375
H3       H      0.133371     0.167212    -0.205044
H4       H      0.193210     0.171059    -0.111250
C1       C      0.185600     0.209167    -0.152173
C2       C      0.165883     0.207921    -0.183111
C3       C      0.181004     0.178485    -0.134702
Ni1      Ni     0.202035     0.170867    -0.184806
H5       H      0.248863     0.213741    -0.206423
C4       C      0.161086     0.157023    -0.156016
H6       H      0.263736     0.158843    -0.169541
C5       C      0.228438     0.132340    -0.205929
C6       C      0.240020     0.188359    -0.212249
C7       C      0.248440     0.159242    -0.192403
H7       H      0.227588     0.106602    -0.196188
H8       H      0.165366     0.227759    -0.202142
O1       O      0.208123     0.251025    -0.247824
H9       H      0.130271     0.055690    -0.205572
H10      H      0.184716     0.126433    -0.317773
C8       C      0.149602     0.176234    -0.184790
H11      H      0.174836     0.011835    -0.294364
H12      H      0.208114     0.064508    -0.303863
H13      H      0.197919     0.186992    -0.325210
H14      H      0.165449     0.107283    -0.213777
C9       C      0.171870     0.033434    -0.277386
C10      C      0.187694     0.090008    -0.260088
C11      C      0.148305     0.031045    -0.250856
C12      C      0.147306     0.057289    -0.227196
C13      C      0.217266     0.194006    -0.274467
C14      C      0.218595     0.141690    -0.240614
C15      C      0.190644     0.062713    -0.282550
C16      C      0.202732     0.123563    -0.266401
C17      C      0.166951     0.086230    -0.231664
C18      C      0.204260     0.174605    -0.301366
C19      C      0.225595     0.176740    -0.244655
B1       B      0.223662     0.232585    -0.273292
C20      C      0.197080     0.140363    -0.297392
C21      C      0.000000     0.250000     0.375000
