data_Staggered_MSUCOF-4-CoCp_BULK_OPTGEOM_DZ_optimized

_cell_length_a    43.068759
_cell_length_b    43.068759
_cell_length_c    43.068759
_cell_angle_alpha 90.000000
_cell_angle_beta  90.000000
_cell_angle_gamma 90.000000

_space_group_name_H-M_alt       'I -4 3 d'
_space_group_IT_number          220

loop_
_atom_site_label
_atom_site_type_symbol
_atom_site_fract_x
_atom_site_fract_y
_atom_site_fract_z
H1       H      0.144468     0.186861    -0.134554
H2       H      0.141887     0.151991    -0.230126
H3       H      0.181380     0.200400    -0.228415
H4       H      0.119922     0.142985    -0.171805
C1       C      0.148734     0.184206    -0.159199
C2       C      0.169493     0.202223    -0.177579
C3       C      0.136214     0.160887    -0.178806
Co1      Co     0.184267     0.156923    -0.179995
H5       H      0.241778     0.175663    -0.155869
C4       C      0.147307     0.166033    -0.209918
H6       H      0.209577     0.131972    -0.124338
C5       C      0.199116     0.112528    -0.171256
C6       C      0.229404     0.156112    -0.165801
C7       C      0.212820     0.132910    -0.149290
H7       H      0.185053     0.092373    -0.165847
H8       H      0.183538     0.221492    -0.169451
O1       O      0.258954     0.211564    -0.196902
H9       H      0.117617     0.049332    -0.209026
H10      H      0.216750     0.112209    -0.279875
C8       C      0.167658     0.191699    -0.209160
H11      H      0.179699     0.013912    -0.278294
H12      H      0.213849     0.059306    -0.270910
H13      H      0.251248     0.157503    -0.273293
H14      H      0.150521     0.095657    -0.203181
C9       C      0.173011     0.032133    -0.262054
C10      C      0.184865     0.080882    -0.236339
C11      C      0.145734     0.028469    -0.244619
C12      C      0.138356     0.051675    -0.223277
C13      C      0.244470     0.161637    -0.224295
C14      C      0.210872     0.120427    -0.201824
C15      C      0.192173     0.057692    -0.257971
C16      C      0.205509     0.107675    -0.231739
C17      C      0.157341     0.077504    -0.219399
C18      C      0.239968     0.147479    -0.252957
C19      C      0.229919     0.147573    -0.198331
B1       B      0.264272     0.191003    -0.220887
C20      C      0.220753     0.121446    -0.256667
C21      C      0.000000     0.250000     0.375000
