data_Staggered_MSUCOF-4-FeCp_BULK_OPTGEOM_DZ_optimized

_cell_length_a    43.072852
_cell_length_b    43.072852
_cell_length_c    43.072852
_cell_angle_alpha 90.000000
_cell_angle_beta  90.000000
_cell_angle_gamma 90.000000

_space_group_name_H-M_alt       'I -4 3 d'
_space_group_IT_number          220

loop_
_atom_site_label
_atom_site_type_symbol
_atom_site_fract_x
_atom_site_fract_y
_atom_site_fract_z
H1       H     -0.134923     0.149284     0.179109
H2       H     -0.231740     0.147005     0.148764
H3       H     -0.227653     0.185727     0.197575
H4       H     -0.174215     0.123949     0.137439
C1       C     -0.159851     0.152733     0.178347
C2       C     -0.177447     0.172204     0.198590
C3       C     -0.180656     0.139487     0.156193
Fe1      Fe    -0.181682     0.186536     0.154252
H5       H     -0.155717     0.241861     0.175207
C4       C     -0.211024     0.151017     0.162561
H6       H     -0.124708     0.208655     0.131924
C5       C     -0.171308     0.200887     0.110562
C6       C     -0.165680     0.230648     0.154990
C7       C     -0.149488     0.213152     0.132118
H7       H     -0.165934     0.186529     0.090620
H8       H     -0.168239     0.186484     0.217172
O1       O     -0.197199     0.258682     0.211766
H9       H     -0.208527     0.118355     0.049131
H10      H     -0.280229     0.215438     0.113207
C8       C     -0.208998     0.171250     0.188750
H11      H     -0.278994     0.179172     0.013832
H12      H     -0.271925     0.213683     0.059113
H13      H     -0.273434     0.249982     0.158692
H14      H     -0.202757     0.152051     0.095254
C9       C     -0.262585     0.172843     0.032026
C10      C     -0.236734     0.185291     0.080452
C11      C     -0.244755     0.145811     0.028430
C12      C     -0.223082     0.138876     0.051466
C13      C     -0.224470     0.244439     0.161691
C14      C     -0.201619     0.211676     0.119436
C15      C     -0.258673     0.192200     0.057462
C16      C     -0.232165     0.205835     0.107310
C17      C     -0.219284     0.158109     0.077107
C18      C     -0.252984     0.239373     0.148176
C19      C     -0.198004     0.230435     0.147056
B1       B     -0.221156     0.264110     0.191226
C20      C     -0.256880     0.220067     0.121769
C21      C      0.375000    -0.000000     0.250000
