data_Staggered_MSUCOF-4-MnCp_BULK_OPTGEOM_DZ_optimized

_cell_length_a    43.029073
_cell_length_b    43.029073
_cell_length_c    43.029073
_cell_angle_alpha 90.000000
_cell_angle_beta  90.000000
_cell_angle_gamma 90.000000

_space_group_name_H-M_alt       'I -4 3 d'
_space_group_IT_number          220

loop_
_atom_site_label
_atom_site_type_symbol
_atom_site_fract_x
_atom_site_fract_y
_atom_site_fract_z
H1       H      0.150522     0.181817    -0.133207
H2       H      0.138526     0.151281    -0.229210
H3       H      0.178686     0.198854    -0.229306
H4       H      0.120991     0.140481    -0.170049
C1       C      0.152512     0.180301    -0.158286
C2       C      0.170838     0.200050    -0.177834
C3       C      0.136646     0.158673    -0.177813
Mn1      Mn     0.185691     0.154793    -0.181663
H5       H      0.243000     0.174571    -0.156358
C4       C      0.145240     0.164817    -0.208988
H6       H      0.210027     0.130830    -0.125254
C5       C      0.201928     0.109911    -0.172101
C6       C      0.231351     0.154590    -0.166356
C7       C      0.213879     0.131578    -0.150160
H7       H      0.188093     0.089507    -0.166934
H8       H      0.185666     0.219001    -0.170330
O1       O      0.258184     0.211974    -0.197730
H9       H      0.118356     0.049603    -0.208988
H10      H      0.215320     0.113465    -0.280996
C8       C      0.166322     0.190151    -0.209097
H11      H      0.179203     0.013555    -0.279190
H12      H      0.213919     0.058789    -0.272358
H13      H      0.249626     0.159155    -0.274270
H14      H      0.152254     0.095710    -0.203461
C9       C      0.172918     0.031892    -0.262884
C10      C      0.185578     0.080437    -0.237249
C11      C      0.145850     0.028498    -0.245022
C12      C      0.138942     0.051758    -0.223525
C13      C      0.244678     0.161589    -0.225057
C14      C      0.213138     0.118668    -0.202230
C15      C      0.192402     0.057298    -0.259092
C16      C      0.206443     0.107130    -0.232707
C17      C      0.158283     0.077380    -0.219862
C18      C      0.239499     0.148211    -0.253776
C19      C      0.231657     0.146285    -0.198600
B1       B      0.263906     0.191485    -0.221692
C20      C      0.220408     0.121795    -0.257630
C21      C     -0.000000     0.250000     0.375000
