data_IRCOF102_BULK_OPTGEOM_DZ_optimized

_cell_length_a    37.200668
_cell_length_b    37.200668
_cell_length_c    37.200668
_cell_angle_alpha 109.471221
_cell_angle_beta  109.471221
_cell_angle_gamma 109.471221

_symmetry_space_group_name_H-M  'P 1'
_symmetry_Int_Tables_number     1

loop_
_symmetry_equiv_pos_as_xyz
  'x, y, z'

loop_
_atom_site_label
_atom_site_type_symbol
_atom_site_fract_x
_atom_site_fract_y
_atom_site_fract_z
O1       O      0.065156     0.470483     0.014778
O2       O     -0.044295     0.050378     0.485222
O3       O      0.434844     0.449622     0.405327
O4       O     -0.455705     0.029517     0.094673
O5       O      0.014778     0.065156     0.470483
O6       O      0.470483     0.014778     0.065156
O7       O      0.094673    -0.455705     0.029517
O8       O      0.050378     0.485222    -0.044295
O9       O      0.485222    -0.044295     0.050378
O10      O      0.449622     0.405327     0.434844
O11      O      0.405327     0.434844     0.449622
O12      O      0.029517     0.094673    -0.455705
O13      O     -0.029517    -0.434844    -0.485222
O14      O     -0.449622     0.455705    -0.014778
O15      O     -0.050378    -0.065156    -0.094673
O16      O     -0.470483     0.044295    -0.405327
O17      O     -0.434844    -0.485222    -0.029517
O18      O     -0.485222    -0.029517    -0.434844
O19      O      0.044295    -0.405327    -0.470483
O20      O     -0.014778    -0.449622     0.455705
O21      O      0.455705    -0.014778    -0.449622
O22      O     -0.094673    -0.050378    -0.065156
O23      O     -0.065156    -0.094673    -0.050378
O24      O     -0.405327    -0.470483     0.044295
H1       H     -0.090200     0.167212    -0.159192
H2       H     -0.173596     0.068992    -0.340808
H3       H     -0.409800     0.431008     0.257412
H4       H     -0.326404     0.332788     0.242588
H5       H     -0.159192    -0.090200     0.167212
H6       H      0.167212    -0.159192    -0.090200
H7       H      0.242588    -0.326404     0.332788
H8       H      0.068992    -0.340808    -0.173596
H9       H     -0.340808    -0.173596     0.068992
H10      H      0.431008     0.257412    -0.409800
H11      H      0.257412    -0.409800     0.431008
H12      H      0.332788     0.242588    -0.326404
H13      H     -0.332788     0.409800     0.340808
H14      H     -0.431008     0.326404     0.159192
H15      H     -0.068992     0.090200    -0.242588
H16      H     -0.167212     0.173596    -0.257412
H17      H      0.409800     0.340808    -0.332788
H18      H      0.340808    -0.332788     0.409800
H19      H      0.173596    -0.257412    -0.167212
H20      H      0.159192    -0.431008     0.326404
H21      H      0.326404     0.159192    -0.431008
H22      H     -0.242588    -0.068992     0.090200
H23      H      0.090200    -0.242588    -0.068992
H24      H     -0.257412    -0.167212     0.173596
H25      H     -0.058227     0.331221    -0.171041
H26      H      0.002262     0.112814    -0.328959
H27      H     -0.441773     0.387186     0.389448
H28      H      0.497738     0.168779     0.110552
H29      H     -0.171041    -0.058227     0.331221
H30      H      0.331221    -0.171041    -0.058227
H31      H      0.110552     0.497738     0.168779
H32      H      0.112814    -0.328959     0.002262
H33      H     -0.328959     0.002262     0.112814
H34      H      0.387186     0.389448    -0.441773
H35      H      0.389448    -0.441773     0.387186
H36      H      0.168779     0.110552     0.497738
H37      H     -0.168779     0.441773     0.328959
H38      H     -0.387186    -0.497738     0.171041
H39      H     -0.112814     0.058227    -0.110552
H40      H     -0.331221    -0.002262    -0.389448
H41      H      0.441773     0.328959    -0.168779
H42      H      0.328959    -0.168779     0.441773
H43      H     -0.002262    -0.389448    -0.331221
H44      H      0.171041    -0.387186    -0.497738
H45      H     -0.497738     0.171041    -0.387186
H46      H     -0.110552    -0.112814     0.058227
H47      H      0.058227    -0.110552    -0.112814
H48      H     -0.389448    -0.331221    -0.002262
H49      H     -0.052808     0.246267    -0.107322
H50      H     -0.146411     0.054514    -0.392678
H51      H     -0.447192     0.445486     0.299075
H52      H     -0.353589     0.253733     0.200925
H53      H     -0.107322    -0.052808     0.246267
H54      H      0.246267    -0.107322    -0.052808
H55      H      0.200925    -0.353589     0.253733
H56      H      0.054514    -0.392678    -0.146411
H57      H     -0.392678    -0.146411     0.054514
H58      H      0.445486     0.299075    -0.447192
H59      H      0.299075    -0.447192     0.445486
H60      H      0.253733     0.200925    -0.353589
H61      H     -0.253733     0.447192     0.392678
H62      H     -0.445486     0.353589     0.107322
H63      H     -0.054514     0.052808    -0.200925
H64      H     -0.246267     0.146411    -0.299075
H65      H      0.447192     0.392678    -0.253733
H66      H      0.392678    -0.253733     0.447192
H67      H      0.146411    -0.299075    -0.246267
H68      H      0.107322    -0.445486     0.353589
H69      H      0.353589     0.107322    -0.445486
H70      H     -0.200925    -0.054514     0.052808
H71      H      0.052808    -0.200925    -0.054514
H72      H     -0.299075    -0.246267     0.146411
H73      H     -0.098956     0.193759    -0.264477
H74      H     -0.041764     0.165521    -0.235523
H75      H     -0.401044     0.334479     0.292715
H76      H     -0.458236     0.306241     0.207285
H77      H     -0.264477    -0.098956     0.193759
H78      H      0.193759    -0.264477    -0.098956
H79      H      0.207285    -0.458236     0.306241
H80      H      0.165521    -0.235523    -0.041764
H81      H     -0.235523    -0.041764     0.165521
H82      H      0.334479     0.292715    -0.401044
H83      H      0.292715    -0.401044     0.334479
H84      H      0.306241     0.207285    -0.458236
H85      H     -0.306241     0.401044     0.235523
H86      H     -0.334479     0.458236     0.264477
H87      H     -0.165521     0.098956    -0.207285
H88      H     -0.193759     0.041764    -0.292715
H89      H      0.401044     0.235523    -0.306241
H90      H      0.235523    -0.306241     0.401044
H91      H      0.041764    -0.292715    -0.193759
H92      H      0.264477    -0.334479     0.458236
H93      H      0.458236     0.264477    -0.334479
H94      H     -0.207285    -0.165521     0.098956
H95      H      0.098956    -0.207285    -0.165521
H96      H     -0.292715    -0.193759     0.041764
H97      H     -0.014989     0.411233    -0.118374
H98      H      0.029608     0.103386    -0.381626
H99      H     -0.485011     0.396614     0.426222
H100     H      0.470392     0.088767     0.073778
H101     H     -0.118374    -0.014989     0.411233
H102     H      0.411233    -0.118374    -0.014989
H103     H      0.073778     0.470392     0.088767
H104     H      0.103386    -0.381626     0.029608
H105     H     -0.381626     0.029608     0.103386
H106     H      0.396614     0.426222    -0.485011
H107     H      0.426222    -0.485011     0.396614
H108     H      0.088767     0.073778     0.470392
H109     H     -0.088767     0.485011     0.381626
H110     H     -0.396614    -0.470392     0.118374
H111     H     -0.103386     0.014989    -0.073778
H112     H     -0.411233    -0.029608    -0.426222
H113     H      0.485011     0.381626    -0.088767
H114     H      0.381626    -0.088767     0.485011
H115     H     -0.029608    -0.426222    -0.411233
H116     H      0.118374    -0.396614    -0.470392
H117     H     -0.470392     0.118374    -0.396614
H118     H     -0.073778    -0.103386     0.014989
H119     H      0.014989    -0.073778    -0.103386
H120     H     -0.426222    -0.411233    -0.029608
H121     H     -0.059087     0.273248    -0.212179
H122     H     -0.014573     0.153092    -0.287821
H123     H     -0.440913     0.346908     0.332335
H124     H     -0.485427     0.226752     0.167665
H125     H     -0.212179    -0.059087     0.273248
H126     H      0.273248    -0.212179    -0.059087
H127     H      0.167665    -0.485427     0.226752
H128     H      0.153092    -0.287821    -0.014573
H129     H     -0.287821    -0.014573     0.153092
H130     H      0.346908     0.332335    -0.440913
H131     H      0.332335    -0.440913     0.346908
H132     H      0.226752     0.167665    -0.485427
H133     H     -0.226752     0.440913     0.287821
H134     H     -0.346908     0.485427     0.212179
H135     H     -0.153092     0.059087    -0.167665
H136     H     -0.273248     0.014573    -0.332335
H137     H      0.440913     0.287821    -0.226752
H138     H      0.287821    -0.226752     0.440913
H139     H      0.014573    -0.332335    -0.273248
H140     H      0.212179    -0.346908     0.485427
H141     H      0.485427     0.212179    -0.346908
H142     H     -0.167665    -0.153092     0.059087
H143     H      0.059087    -0.167665    -0.153092
H144     H     -0.332335    -0.273248     0.014573
C1       C     -0.098788     0.174327    -0.216045
C2       C     -0.109628     0.117258    -0.283955
C3       C     -0.401212     0.382742     0.273114
C4       C     -0.390372     0.325673     0.226886
C5       C     -0.216045    -0.098788     0.174327
C6       C      0.174327    -0.216045    -0.098788
C7       C      0.226886    -0.390372     0.325673
C8       C      0.117258    -0.283955    -0.109628
C9       C     -0.283955    -0.109628     0.117258
C10      C      0.382742     0.273114    -0.401212
C11      C      0.273114    -0.401212     0.382742
C12      C      0.325673     0.226886    -0.390372
C13      C     -0.325673     0.401212     0.283955
C14      C     -0.382742     0.390372     0.216045
C15      C     -0.117258     0.098788    -0.226886
C16      C     -0.174327     0.109628    -0.273114
C17      C      0.401212     0.283955    -0.325673
C18      C      0.283955    -0.325673     0.401212
C19      C      0.109628    -0.273114    -0.174327
C20      C      0.216045    -0.382742     0.390372
C21      C      0.390372     0.216045    -0.382742
C22      C     -0.226886    -0.117258     0.098788
C23      C      0.098788    -0.226886    -0.117258
C24      C     -0.273114    -0.174327     0.109628
C25      C     -0.089442     0.205321    -0.229938
C26      C     -0.064742     0.140496    -0.270062
C27      C     -0.410558     0.359504     0.294763
C28      C     -0.435258     0.294679     0.205237
C29      C     -0.229938    -0.089442     0.205321
C30      C      0.205321    -0.229938    -0.089442
C31      C      0.205237    -0.435258     0.294679
C32      C      0.140496    -0.270062    -0.064742
C33      C     -0.270062    -0.064742     0.140496
C34      C      0.359504     0.294763    -0.410558
C35      C      0.294763    -0.410558     0.359504
C36      C      0.294679     0.205237    -0.435258
C37      C     -0.294679     0.410558     0.270062
C38      C     -0.359504     0.435258     0.229938
C39      C     -0.140496     0.089442    -0.205237
C40      C     -0.205321     0.064742    -0.294763
C41      C      0.410558     0.270062    -0.294679
C42      C      0.270062    -0.294679     0.410558
C43      C      0.064742    -0.294763    -0.205321
C44      C      0.229938    -0.359504     0.435258
C45      C      0.435258     0.229938    -0.359504
C46      C     -0.205237    -0.140496     0.089442
C47      C      0.089442    -0.205237    -0.140496
C48      C     -0.294763    -0.205321     0.064742
C49      C     -0.067074     0.250153    -0.200400
C50      C     -0.049448     0.133326    -0.299600
C51      C     -0.432926     0.366674     0.317226
C52      C     -0.450552     0.249847     0.182774
C53      C     -0.200400    -0.067074     0.250153
C54      C      0.250153    -0.200400    -0.067074
C55      C      0.182774    -0.450552     0.249847
C56      C      0.133326    -0.299600    -0.049448
C57      C     -0.299600    -0.049448     0.133326
C58      C      0.366674     0.317226    -0.432926
C59      C      0.317226    -0.432926     0.366674
C60      C      0.249847     0.182774    -0.450552
C61      C     -0.249847     0.432926     0.299600
C62      C     -0.366674     0.450552     0.200400
C63      C     -0.133326     0.067074    -0.182774
C64      C     -0.250153     0.049448    -0.317226
C65      C      0.432926     0.299600    -0.249847
C66      C      0.299600    -0.249847     0.432926
C67      C      0.049448    -0.317226    -0.250153
C68      C      0.200400    -0.366674     0.450552
C69      C      0.450552     0.200400    -0.366674
C70      C     -0.182774    -0.133326     0.067074
C71      C      0.067074    -0.182774    -0.133326
C72      C     -0.317226    -0.250153     0.049448
C73      C     -0.062475     0.235161    -0.141808
C74      C     -0.123031     0.079333    -0.358192
C75      C     -0.437525     0.420667     0.297636
C76      C     -0.376969     0.264839     0.202364
C77      C     -0.141808    -0.062475     0.235161
C78      C      0.235161    -0.141808    -0.062475
C79      C      0.202364    -0.376969     0.264839
C80      C      0.079333    -0.358192    -0.123031
C81      C     -0.358192    -0.123031     0.079333
C82      C      0.420667     0.297636    -0.437525
C83      C      0.297636    -0.437525     0.420667
C84      C      0.264839     0.202364    -0.376969
C85      C     -0.264839     0.437525     0.358192
C86      C     -0.420667     0.376969     0.141808
C87      C     -0.079333     0.062475    -0.202364
C88      C     -0.235161     0.123031    -0.297636
C89      C      0.437525     0.358192    -0.264839
C90      C      0.358192    -0.264839     0.437525
C91      C      0.123031    -0.297636    -0.235161
C92      C      0.141808    -0.420667     0.376969
C93      C      0.376969     0.141808    -0.420667
C94      C     -0.202364    -0.079333     0.062475
C95      C      0.062475    -0.202364    -0.079333
C96      C     -0.297636    -0.235161     0.123031
C97      C     -0.053097     0.266172    -0.155514
C98      C     -0.078314     0.102418    -0.344486
C99      C     -0.446903     0.397582     0.319269
C100     C     -0.421686     0.233828     0.180731
C101     C     -0.155514    -0.053097     0.266172
C102     C      0.266172    -0.155514    -0.053097
C103     C      0.180731    -0.421686     0.233828
C104     C      0.102418    -0.344486    -0.078314
C105     C     -0.344486    -0.078314     0.102418
C106     C      0.397582     0.319269    -0.446903
C107     C      0.319269    -0.446903     0.397582
C108     C      0.233828     0.180731    -0.421686
C109     C     -0.233828     0.446903     0.344486
C110     C     -0.397582     0.421686     0.155514
C111     C     -0.102418     0.053097    -0.180731
C112     C     -0.266172     0.078314    -0.319269
C113     C      0.446903     0.344486    -0.233828
C114     C      0.344486    -0.233828     0.446903
C115     C      0.078314    -0.319269    -0.266172
C116     C      0.155514    -0.397582     0.421686
C117     C      0.421686     0.155514    -0.397582
C118     C     -0.180731    -0.102418     0.053097
C119     C      0.053097    -0.180731    -0.102418
C120     C     -0.319269    -0.266172     0.078314
C121     C      0.023765     0.375450    -0.049711
C122     C     -0.074840     0.073475    -0.450289
C123     C      0.476235     0.426525     0.351685
C124     C     -0.425160     0.124550     0.148315
C125     C     -0.049711     0.023765     0.375450
C126     C      0.375450    -0.049711     0.023765
C127     C      0.148315    -0.425160     0.124550
C128     C      0.073475    -0.450289    -0.074840
C129     C     -0.450289    -0.074840     0.073475
C130     C      0.426525     0.351685     0.476235
C131     C      0.351685     0.476235     0.426525
C132     C      0.124550     0.148315    -0.425160
C133     C     -0.124550    -0.476235     0.450289
C134     C     -0.426525     0.425160     0.049711
C135     C     -0.073475    -0.023765    -0.148315
C136     C     -0.375450     0.074840    -0.351685
C137     C     -0.476235     0.450289    -0.124550
C138     C      0.450289    -0.124550    -0.476235
C139     C      0.074840    -0.351685    -0.375450
C140     C      0.049711    -0.426525     0.425160
C141     C      0.425160     0.049711    -0.426525
C142     C     -0.148315    -0.073475    -0.023765
C143     C     -0.023765    -0.148315    -0.073475
C144     C     -0.351685    -0.375450     0.074840
C145     C     -0.084472     0.190262    -0.171318
C146     C     -0.138420     0.086846    -0.328682
C147     C     -0.415528     0.413154     0.274734
C148     C     -0.361580     0.309738     0.225266
C149     C     -0.171318    -0.084472     0.190262
C150     C      0.190262    -0.171318    -0.084472
C151     C      0.225266    -0.361580     0.309738
C152     C      0.086846    -0.328682    -0.138420
C153     C     -0.328682    -0.138420     0.086846
C154     C      0.413154     0.274734    -0.415528
C155     C      0.274734    -0.415528     0.413154
C156     C      0.309738     0.225266    -0.361580
C157     C     -0.309738     0.415528     0.328682
C158     C     -0.413154     0.361580     0.171318
C159     C     -0.086846     0.084472    -0.225266
C160     C     -0.190262     0.138420    -0.274734
C161     C      0.415528     0.328682    -0.309738
C162     C      0.328682    -0.309738     0.415528
C163     C      0.138420    -0.274734    -0.190262
C164     C      0.171318    -0.413154     0.361580
C165     C      0.361580     0.171318    -0.413154
C166     C     -0.225266    -0.086846     0.084472
C167     C      0.084472    -0.225266    -0.086846
C168     C     -0.274734    -0.190262     0.138420
H145     H      0.046570     0.387940    -0.015351
H146     H     -0.096709     0.061921    -0.484649
H147     H      0.453430     0.438079     0.341370
H148     H     -0.403291     0.112060     0.158630
H149     H     -0.015351     0.046570     0.387940
H150     H      0.387940    -0.015351     0.046570
H151     H      0.158630    -0.403291     0.112060
H152     H      0.061921    -0.484649    -0.096709
H153     H     -0.484649    -0.096709     0.061921
H154     H      0.438079     0.341370     0.453430
H155     H      0.341370     0.453430     0.438079
H156     H      0.112060     0.158630    -0.403291
H157     H     -0.112060    -0.453430     0.484649
H158     H     -0.438079     0.403291     0.015351
H159     H     -0.061921    -0.046570    -0.158630
H160     H     -0.387940     0.096709    -0.341370
H161     H     -0.453430     0.484649    -0.112060
H162     H      0.484649    -0.112060    -0.453430
H163     H      0.096709    -0.341370    -0.387940
H164     H      0.015351    -0.438079     0.403291
H165     H      0.403291     0.015351    -0.438079
H166     H     -0.158630    -0.061921    -0.046570
H167     H     -0.046570    -0.158630    -0.061921
H168     H     -0.341370    -0.387940     0.096709
C169     C     -0.034383     0.343614    -0.137097
C170     C     -0.019289     0.102714    -0.362903
C171     C     -0.465617     0.397286     0.377997
C172     C     -0.480711     0.156386     0.122003
C173     C     -0.137097    -0.034383     0.343614
C174     C      0.343614    -0.137097    -0.034383
C175     C      0.122003    -0.480711     0.156386
C176     C      0.102714    -0.362903    -0.019289
C177     C     -0.362903    -0.019289     0.102714
C178     C      0.397286     0.377997    -0.465617
C179     C      0.377997    -0.465617     0.397286
C180     C      0.156386     0.122003    -0.480711
C181     C     -0.156386     0.465617     0.362903
C182     C     -0.397286     0.480711     0.137097
C183     C     -0.102714     0.034383    -0.122003
C184     C     -0.343614     0.019289    -0.377997
C185     C      0.465617     0.362903    -0.156386
C186     C      0.362903    -0.156386     0.465617
C187     C      0.019289    -0.377997    -0.343614
C188     C      0.137097    -0.397286     0.480711
C189     C      0.480711     0.137097    -0.397286
C190     C     -0.122003    -0.102714     0.034383
C191     C      0.034383    -0.122003    -0.102714
C192     C     -0.377997    -0.343614     0.019289
C193     C      0.018786     0.405360    -0.063016
C194     C     -0.031624     0.081802    -0.436984
C195     C      0.481214     0.418198     0.386574
C196     C     -0.468376     0.094640     0.113426
C197     C     -0.063016     0.018786     0.405360
C198     C      0.405360    -0.063016     0.018786
C199     C      0.113426    -0.468376     0.094640
C200     C      0.081802    -0.436984    -0.031624
C201     C     -0.436984    -0.031624     0.081802
C202     C      0.418198     0.386574     0.481214
C203     C      0.386574     0.481214     0.418198
C204     C      0.094640     0.113426    -0.468376
C205     C     -0.094640    -0.481214     0.436984
C206     C     -0.418198     0.468376     0.063016
C207     C     -0.081802    -0.018786    -0.113426
C208     C     -0.405360     0.031624    -0.386574
C209     C     -0.481214     0.436984    -0.094640
C210     C      0.436984    -0.094640    -0.481214
C211     C      0.031624    -0.386574    -0.405360
C212     C      0.063016    -0.418198     0.468376
C213     C      0.468376     0.063016    -0.418198
C214     C     -0.113426    -0.081802    -0.018786
C215     C     -0.018786    -0.113426    -0.081802
C216     C     -0.386574    -0.405360     0.031624
H169     H      0.006981     0.308384    -0.068742
H170     H     -0.122874     0.075723    -0.431258
H171     H      0.493019     0.424277     0.301403
H172     H     -0.377126     0.191616     0.198597
H173     H     -0.068742     0.006981     0.308384
H174     H      0.308384    -0.068742     0.006981
H175     H      0.198597    -0.377126     0.191616
H176     H      0.075723    -0.431258    -0.122874
H177     H     -0.431258    -0.122874     0.075723
H178     H      0.424277     0.301403     0.493019
H179     H      0.301403     0.493019     0.424277
H180     H      0.191616     0.198597    -0.377126
H181     H     -0.191616    -0.493019     0.431258
H182     H     -0.424277     0.377126     0.068742
H183     H     -0.075723    -0.006981    -0.198597
H184     H     -0.308384     0.122874    -0.301403
H185     H     -0.493019     0.431258    -0.191616
H186     H      0.431258    -0.191616    -0.493019
H187     H      0.122874    -0.301403    -0.308384
H188     H      0.068742    -0.424277     0.377126
H189     H      0.377126     0.068742    -0.424277
H190     H     -0.198597    -0.075723    -0.006981
H191     H     -0.006981    -0.198597    -0.075723
H192     H     -0.301403    -0.308384     0.122874
C217     C      0.001041     0.330689    -0.079584
C218     C     -0.089727     0.080625    -0.420416
C219     C      0.498959     0.419375     0.329648
C220     C     -0.410273     0.169311     0.170352
C221     C     -0.079584     0.001041     0.330689
C222     C      0.330689    -0.079584     0.001041
C223     C      0.170352    -0.410273     0.169311
C224     C      0.080625    -0.420416    -0.089727
C225     C     -0.420416    -0.089727     0.080625
C226     C      0.419375     0.329648     0.498959
C227     C      0.329648     0.498959     0.419375
C228     C      0.169311     0.170352    -0.410273
C229     C     -0.169311    -0.498959     0.420416
C230     C     -0.419375     0.410273     0.079584
C231     C     -0.080625    -0.001041    -0.170352
C232     C     -0.330689     0.089727    -0.329648
C233     C     -0.498959     0.420416    -0.169311
C234     C      0.420416    -0.169311    -0.498959
C235     C      0.089727    -0.329648    -0.330689
C236     C      0.079584    -0.419375     0.410273
C237     C      0.410273     0.079584    -0.419375
C238     C     -0.170352    -0.080625    -0.001041
C239     C     -0.001041    -0.170352    -0.080625
C240     C     -0.329648    -0.330689     0.089727
C241     C     -0.028745     0.313806    -0.123870
C242     C     -0.062324     0.095124    -0.376130
C243     C     -0.471255     0.404876     0.342552
C244     C     -0.437676     0.186194     0.157448
C245     C     -0.123870    -0.028745     0.313806
C246     C      0.313806    -0.123870    -0.028745
C247     C      0.157448    -0.437676     0.186194
C248     C      0.095124    -0.376130    -0.062324
C249     C     -0.376130    -0.062324     0.095124
C250     C      0.404876     0.342552    -0.471255
C251     C      0.342552    -0.471255     0.404876
C252     C      0.186194     0.157448    -0.437676
C253     C     -0.186194     0.471255     0.376130
C254     C     -0.404876     0.437676     0.123870
C255     C     -0.095124     0.028745    -0.157448
C256     C     -0.313806     0.062324    -0.342552
C257     C      0.471255     0.376130    -0.186194
C258     C      0.376130    -0.186194     0.471255
C259     C      0.062324    -0.342552    -0.313806
C260     C      0.123870    -0.404876     0.437676
C261     C      0.437676     0.123870    -0.404876
C262     C     -0.157448    -0.095124     0.028745
C263     C      0.028745    -0.157448    -0.095124
C264     C     -0.342552    -0.313806     0.062324
C265     C     -0.010567     0.388503    -0.107377
C266     C     -0.004120     0.096810    -0.392623
C267     C     -0.489433     0.403190     0.399070
C268     C     -0.495880     0.111497     0.100930
C269     C     -0.107377    -0.010567     0.388503
C270     C      0.388503    -0.107377    -0.010567
C271     C      0.100930    -0.495880     0.111497
C272     C      0.096810    -0.392623    -0.004120
C273     C     -0.392623    -0.004120     0.096810
C274     C      0.403190     0.399070    -0.489433
C275     C      0.399070    -0.489433     0.403190
C276     C      0.111497     0.100930    -0.495880
C277     C     -0.111497     0.489433     0.392623
C278     C     -0.403190     0.495880     0.107377
C279     C     -0.096810     0.010567    -0.100930
C280     C     -0.388503     0.004120    -0.399070
C281     C      0.489433     0.392623    -0.111497
C282     C      0.392623    -0.111497     0.489433
C283     C      0.004120    -0.399070    -0.388503
C284     C      0.107377    -0.403190     0.495880
C285     C      0.495880     0.107377    -0.403190
C286     C     -0.100930    -0.096810     0.010567
C287     C      0.010567    -0.100930    -0.096810
C288     C     -0.399070    -0.388503     0.004120
B1       B      0.045372     0.455125    -0.029910
B2       B     -0.014965     0.075283    -0.470090
B3       B      0.454628     0.424717     0.409752
B4       B     -0.485035     0.044875     0.090248
B5       B     -0.029910     0.045372     0.455125
B6       B      0.455125    -0.029910     0.045372
B7       B      0.090248    -0.485035     0.044875
B8       B      0.075283    -0.470090    -0.014965
B9       B     -0.470090    -0.014965     0.075283
B10      B      0.424717     0.409752     0.454628
B11      B      0.409752     0.454628     0.424717
B12      B      0.044875     0.090248    -0.485035
B13      B     -0.044875    -0.454628     0.470090
B14      B     -0.424717     0.485035     0.029910
B15      B     -0.075283    -0.045372    -0.090248
B16      B     -0.455125     0.014965    -0.409752
B17      B     -0.454628     0.470090    -0.044875
B18      B      0.470090    -0.044875    -0.454628
B19      B      0.014965    -0.409752    -0.455125
B20      B      0.029910    -0.424717     0.485035
B21      B      0.485035     0.029910    -0.424717
B22      B     -0.090248    -0.075283    -0.045372
B23      B     -0.045372    -0.090248    -0.075283
B24      B     -0.409752    -0.455125     0.014965
C289     C      0.375000     0.250000    -0.375000
C290     C      0.125000    -0.250000    -0.125000
C291     C     -0.375000     0.375000     0.250000
C292     C      0.250000    -0.375000     0.375000
C293     C     -0.250000    -0.125000     0.125000
C294     C     -0.125000     0.125000    -0.250000
