data_MSUCOF-4_BULK_OPT_DZ_optimized

_cell_length_a    37.216809
_cell_length_b    37.216809
_cell_length_c    37.216809
_cell_angle_alpha 109.471221
_cell_angle_beta  109.471221
_cell_angle_gamma 109.471221

_symmetry_space_group_name_H-M  'P 1'
_symmetry_Int_Tables_number     1

loop_
_symmetry_equiv_pos_as_xyz
  'x, y, z'

loop_
_atom_site_label
_atom_site_type_symbol
_atom_site_fract_x
_atom_site_fract_y
_atom_site_fract_z
H1       H      0.416549     0.021201     0.079078
H2       H      0.442123     0.337471     0.420922
H3       H      0.083451     0.162529    -0.395348
H4       H      0.057877     0.478799    -0.104652
H5       H      0.079078     0.416549     0.021201
H6       H      0.021201     0.079078     0.416549
H7       H     -0.104652     0.057877     0.478799
H8       H      0.337471     0.420922     0.442123
H9       H      0.420922     0.442123     0.337471
H10      H      0.162529    -0.395348     0.083451
H11      H     -0.395348     0.083451     0.162529
H12      H      0.478799    -0.104652     0.057877
H13      H     -0.478799    -0.083451    -0.420922
H14      H     -0.162529    -0.057877    -0.079078
H15      H     -0.337471    -0.416549     0.104652
H16      H     -0.021201    -0.442123     0.395348
H17      H     -0.083451    -0.420922    -0.478799
H18      H     -0.420922    -0.478799    -0.083451
H19      H     -0.442123     0.395348    -0.021201
H20      H     -0.079078    -0.162529    -0.057877
H21      H     -0.057877    -0.079078    -0.162529
H22      H      0.104652    -0.337471    -0.416549
H23      H     -0.416549     0.104652    -0.337471
H24      H      0.395348    -0.021201    -0.442123
H25      H      0.341375     0.008433     0.079224
H26      H      0.429209     0.262151     0.420776
H27      H      0.158625     0.237849    -0.332942
H28      H      0.070791     0.491567    -0.167058
H29      H      0.079224     0.341375     0.008433
H30      H      0.008433     0.079224     0.341375
H31      H     -0.167058     0.070791     0.491567
H32      H      0.262151     0.420776     0.429209
H33      H      0.420776     0.429209     0.262151
H34      H      0.237849    -0.332942     0.158625
H35      H     -0.332942     0.158625     0.237849
H36      H      0.491567    -0.167058     0.070791
H37      H     -0.491567    -0.158625    -0.420776
H38      H     -0.237849    -0.070791    -0.079224
H39      H     -0.262151    -0.341375     0.167058
H40      H     -0.008433    -0.429209     0.332942
H41      H     -0.158625    -0.420776    -0.491567
H42      H     -0.420776    -0.491567    -0.158625
H43      H     -0.429209     0.332942    -0.008433
H44      H     -0.079224    -0.237849    -0.070791
H45      H     -0.070791    -0.079224    -0.237849
H46      H      0.167058    -0.262151    -0.341375
H47      H     -0.341375     0.167058    -0.262151
H48      H      0.332942    -0.008433    -0.429209
C1       C      0.312508    -0.059249     0.025495
C2       C      0.415256     0.287013     0.474505
C3       C      0.187492     0.212987    -0.371757
C4       C      0.084744    -0.440751    -0.128243
C5       C      0.025495     0.312508    -0.059249
C6       C     -0.059249     0.025495     0.312508
C7       C     -0.128243     0.084744    -0.440751
C8       C      0.287013     0.474505     0.415256
C9       C      0.474505     0.415256     0.287013
C10      C      0.212987    -0.371757     0.187492
C11      C     -0.371757     0.187492     0.212987
C12      C     -0.440751    -0.128243     0.084744
C13      C      0.440751    -0.187492    -0.474505
C14      C     -0.212987    -0.084744    -0.025495
C15      C     -0.287013    -0.312508     0.128243
C16      C      0.059249    -0.415256     0.371757
C17      C     -0.187492    -0.474505     0.440751
C18      C     -0.474505     0.440751    -0.187492
C19      C     -0.415256     0.371757     0.059249
C20      C     -0.025495    -0.212987    -0.084744
C21      C     -0.084744    -0.025495    -0.212987
C22      C      0.128243    -0.287013    -0.312508
C23      C     -0.312508     0.128243    -0.287013
C24      C      0.371757     0.059249    -0.415256
C25      C      0.384887    -0.008992     0.057833
C26      C      0.433174     0.327053     0.442167
C27      C      0.115113     0.172947    -0.393879
C28      C      0.066826    -0.491008    -0.106121
C29      C      0.057833     0.384887    -0.008992
C30      C     -0.008992     0.057833     0.384887
C31      C     -0.106121     0.066826    -0.491008
C32      C      0.327053     0.442167     0.433174
C33      C      0.442167     0.433174     0.327053
C34      C      0.172947    -0.393879     0.115113
C35      C     -0.393879     0.115113     0.172947
C36      C     -0.491008    -0.106121     0.066826
C37      C      0.491008    -0.115113    -0.442167
C38      C     -0.172947    -0.066826    -0.057833
C39      C     -0.327053    -0.384887     0.106121
C40      C      0.008992    -0.433174     0.393879
C41      C     -0.115113    -0.442167     0.491008
C42      C     -0.442167     0.491008    -0.115113
C43      C     -0.433174     0.393879     0.008992
C44      C     -0.057833    -0.172947    -0.066826
C45      C     -0.066826    -0.057833    -0.172947
C46      C      0.106121    -0.327053    -0.384887
C47      C     -0.384887     0.106121    -0.327053
C48      C      0.393879     0.008992    -0.433174
C49      C      0.345579    -0.015799     0.057621
C50      C      0.426581     0.287959     0.442379
C51      C      0.154421     0.212041    -0.361378
C52      C      0.073419    -0.484201    -0.138622
C53      C      0.057621     0.345579    -0.015799
C54      C     -0.015799     0.057621     0.345579
C55      C     -0.138622     0.073419    -0.484201
C56      C      0.287959     0.442379     0.426581
C57      C      0.442379     0.426581     0.287959
C58      C      0.212041    -0.361378     0.154421
C59      C     -0.361378     0.154421     0.212041
C60      C     -0.484201    -0.138622     0.073419
C61      C      0.484201    -0.154421    -0.442379
C62      C     -0.212041    -0.073419    -0.057621
C63      C     -0.287959    -0.345579     0.138622
C64      C      0.015799    -0.426581     0.361378
C65      C     -0.154421    -0.442379     0.484201
C66      C     -0.442379     0.484201    -0.154421
C67      C     -0.426581     0.361378     0.015799
C68      C     -0.057621    -0.212041    -0.073419
C69      C     -0.073419    -0.057621    -0.212041
C70      C      0.138622    -0.287959    -0.345579
C71      C     -0.345579     0.138622    -0.287959
C72      C      0.361378     0.015799    -0.426581
H49      H      0.278895    -0.075054     0.018930
H50      H      0.406017     0.259966     0.481070
H51      H      0.221105     0.240034    -0.353949
H52      H      0.093983    -0.424946    -0.146051
H53      H      0.018930     0.278895    -0.075054
H54      H     -0.075054     0.018930     0.278895
H55      H     -0.146051     0.093983    -0.424946
H56      H      0.259966     0.481070     0.406017
H57      H      0.481070     0.406017     0.259966
H58      H      0.240034    -0.353949     0.221105
H59      H     -0.353949     0.221105     0.240034
H60      H     -0.424946    -0.146051     0.093983
H61      H      0.424946    -0.221105    -0.481070
H62      H     -0.240034    -0.093983    -0.018930
H63      H     -0.259966    -0.278895     0.146051
H64      H      0.075054    -0.406017     0.353949
H65      H     -0.221105    -0.481070     0.424946
H66      H     -0.481070     0.424946    -0.221105
H67      H     -0.406017     0.353949     0.075054
H68      H     -0.018930    -0.240034    -0.093983
H69      H     -0.093983    -0.018930    -0.240034
H70      H      0.146051    -0.259966    -0.278895
H71      H     -0.278895     0.146051    -0.259966
H72      H      0.353949     0.075054    -0.406017
O1       O      0.471450     0.015889     0.056964
O2       O      0.458925     0.414487     0.443036
O3       O      0.028550     0.085513    -0.455561
O4       O      0.041075     0.484111    -0.044439
O5       O      0.056964     0.471450     0.015889
O6       O      0.015889     0.056964     0.471450
O7       O     -0.044439     0.041075     0.484111
O8       O      0.414487     0.443036     0.458925
O9       O      0.443036     0.458925     0.414487
O10      O      0.085513    -0.455561     0.028550
O11      O     -0.455561     0.028550     0.085513
O12      O      0.484111    -0.044439     0.041075
O13      O     -0.484111    -0.028550    -0.443036
O14      O     -0.085513    -0.041075    -0.056964
O15      O     -0.414487    -0.471450     0.044439
O16      O     -0.015889    -0.458925     0.455561
O17      O     -0.028550    -0.443036    -0.484111
O18      O     -0.443036    -0.484111    -0.028550
O19      O     -0.458925     0.455561    -0.015889
O20      O     -0.056964    -0.085513    -0.041075
O21      O     -0.041075    -0.056964    -0.085513
O22      O      0.044439    -0.414487    -0.471450
O23      O     -0.471450     0.044439    -0.414487
O24      O      0.455561    -0.015889    -0.458925
H73      H      0.166676    -0.159911    -0.093247
H74      H      0.433336     0.259924    -0.406753
H75      H      0.333324     0.240076    -0.326588
H76      H      0.066664    -0.340089    -0.173412
H77      H     -0.093247     0.166676    -0.159911
H78      H     -0.159911    -0.093247     0.166676
H79      H     -0.173412     0.066664    -0.340089
H80      H      0.259924    -0.406753     0.433336
H81      H     -0.406753     0.433336     0.259924
H82      H      0.240076    -0.326588     0.333324
H83      H     -0.326588     0.333324     0.240076
H84      H     -0.340089    -0.173412     0.066664
H85      H      0.340089    -0.333324     0.406753
H86      H     -0.240076    -0.066664     0.093247
H87      H     -0.259924    -0.166676     0.173412
H88      H      0.159911    -0.433336     0.326588
H89      H     -0.333324     0.406753     0.340089
H90      H      0.406753     0.340089    -0.333324
H91      H     -0.433336     0.326588     0.159911
H92      H      0.093247    -0.240076    -0.066664
H93      H     -0.066664     0.093247    -0.240076
H94      H      0.173412    -0.259924    -0.166676
H95      H     -0.166676     0.173412    -0.259924
H96      H      0.326588     0.159911    -0.433336
H97      H      0.328619    -0.167995    -0.067524
H98      H      0.399530     0.396144    -0.432476
H99      H      0.171381     0.103856    -0.496614
H100     H      0.100470    -0.332005    -0.003386
H101     H     -0.067524     0.328619    -0.167995
H102     H     -0.167995    -0.067524     0.328619
H103     H     -0.003386     0.100470    -0.332005
H104     H      0.396144    -0.432476     0.399530
H105     H     -0.432476     0.399530     0.396144
H106     H      0.103856    -0.496614     0.171381
H107     H     -0.496614     0.171381     0.103856
H108     H     -0.332005    -0.003386     0.100470
H109     H      0.332005    -0.171381     0.432476
H110     H     -0.103856    -0.100470     0.067524
H111     H     -0.396144    -0.328619     0.003386
H112     H      0.167995    -0.399530     0.496614
H113     H     -0.171381     0.432476     0.332005
H114     H      0.432476     0.332005    -0.171381
H115     H     -0.399530     0.496614     0.167995
H116     H      0.067524    -0.103856    -0.100470
H117     H     -0.100470     0.067524    -0.103856
H118     H      0.003386    -0.396144    -0.328619
H119     H     -0.328619     0.003386    -0.396144
H120     H      0.496614     0.167995    -0.399530
H121     H      0.194152    -0.263893    -0.097409
H122     H      0.333516     0.291561    -0.402591
H123     H      0.305848     0.208439    -0.458046
H124     H      0.166484    -0.236107    -0.041954
H125     H     -0.097409     0.194152    -0.263893
H126     H     -0.263893    -0.097409     0.194152
H127     H     -0.041954     0.166484    -0.236107
H128     H      0.291561    -0.402591     0.333516
H129     H     -0.402591     0.333516     0.291561
H130     H      0.208439    -0.458046     0.305848
H131     H     -0.458046     0.305848     0.208439
H132     H     -0.236107    -0.041954     0.166484
H133     H      0.236107    -0.305848     0.402591
H134     H     -0.208439    -0.166484     0.097409
H135     H     -0.291561    -0.194152     0.041954
H136     H      0.263893    -0.333516     0.458046
H137     H     -0.305848     0.402591     0.236107
H138     H      0.402591     0.236107    -0.305848
H139     H     -0.333516     0.458046     0.263893
H140     H      0.097409    -0.208439    -0.166484
H141     H     -0.166484     0.097409    -0.208439
H142     H      0.041954    -0.291561    -0.194152
H143     H     -0.194152     0.041954    -0.291561
H144     H      0.458046     0.263893    -0.333516
H145     H      0.273781    -0.211108    -0.057764
H146     H      0.346657     0.331545    -0.442236
H147     H      0.226219     0.168455    -0.484889
H148     H      0.153343    -0.288892    -0.015111
H149     H     -0.057764     0.273781    -0.211108
H150     H     -0.211108    -0.057764     0.273781
H151     H     -0.015111     0.153343    -0.288892
H152     H      0.331545    -0.442236     0.346657
H153     H     -0.442236     0.346657     0.331545
H154     H      0.168455    -0.484889     0.226219
H155     H     -0.484889     0.226219     0.168455
H156     H     -0.288892    -0.015111     0.153343
H157     H      0.288892    -0.226219     0.442236
H158     H     -0.168455    -0.153343     0.057764
H159     H     -0.331545    -0.273781     0.015111
H160     H      0.211108    -0.346657     0.484889
H161     H     -0.226219     0.442236     0.288892
H162     H      0.442236     0.288892    -0.226219
H163     H     -0.346657     0.484889     0.211108
H164     H      0.057764    -0.168455    -0.153343
H165     H     -0.153343     0.057764    -0.168455
H166     H      0.015111    -0.331545    -0.273781
H167     H     -0.273781     0.015111    -0.331545
H168     H      0.484889     0.211108    -0.346657
H169     H      0.408044    -0.115288    -0.028458
H170     H      0.413169     0.436502    -0.471542
H171     H      0.091956     0.063498     0.476667
H172     H      0.086831    -0.384712     0.023333
H173     H     -0.028458     0.408044    -0.115288
H174     H     -0.115288    -0.028458     0.408044
H175     H      0.023333     0.086831    -0.384712
H176     H      0.436502    -0.471542     0.413169
H177     H     -0.471542     0.413169     0.436502
H178     H      0.063498     0.476667     0.091956
H179     H      0.476667     0.091956     0.063498
H180     H     -0.384712     0.023333     0.086831
H181     H      0.384712    -0.091956     0.471542
H182     H     -0.063498    -0.086831     0.028458
H183     H     -0.436502    -0.408044    -0.023333
H184     H      0.115288    -0.413169    -0.476667
H185     H     -0.091956     0.471542     0.384712
H186     H      0.471542     0.384712    -0.091956
H187     H     -0.413169    -0.476667     0.115288
H188     H      0.028458    -0.063498    -0.086831
H189     H     -0.086831     0.028458    -0.063498
H190     H     -0.023333    -0.436502    -0.408044
H191     H     -0.408044    -0.023333    -0.436502
H192     H     -0.476667     0.115288    -0.413169
H193     H      0.246110    -0.107913    -0.056650
H194     H      0.448737     0.302760    -0.443350
H195     H      0.253890     0.197240    -0.354023
H196     H      0.051263    -0.392087    -0.145977
H197     H     -0.056650     0.246110    -0.107913
H198     H     -0.107913    -0.056650     0.246110
H199     H     -0.145977     0.051263    -0.392087
H200     H      0.302760    -0.443350     0.448737
H201     H     -0.443350     0.448737     0.302760
H202     H      0.197240    -0.354023     0.253890
H203     H     -0.354023     0.253890     0.197240
H204     H     -0.392087    -0.145977     0.051263
H205     H      0.392087    -0.253890     0.443350
H206     H     -0.197240    -0.051263     0.056650
H207     H     -0.302760    -0.246110     0.145977
H208     H      0.107913    -0.448737     0.354023
H209     H     -0.253890     0.443350     0.392087
H210     H      0.443350     0.392087    -0.253890
H211     H     -0.448737     0.354023     0.107913
H212     H      0.056650    -0.197240    -0.051263
H213     H     -0.051263     0.056650    -0.197240
H214     H      0.145977    -0.302760    -0.246110
H215     H     -0.246110     0.145977    -0.302760
H216     H      0.354023     0.107913    -0.448737
C73      C      0.205498    -0.229594    -0.088782
C74      C      0.359188     0.294280    -0.411218
C75      C      0.294502     0.205720    -0.435092
C76      C      0.140812    -0.270406    -0.064908
C77      C     -0.088782     0.205498    -0.229594
C78      C     -0.229594    -0.088782     0.205498
C79      C     -0.064908     0.140812    -0.270406
C80      C      0.294280    -0.411218     0.359188
C81      C     -0.411218     0.359188     0.294280
C82      C      0.205720    -0.435092     0.294502
C83      C     -0.435092     0.294502     0.205720
C84      C     -0.270406    -0.064908     0.140812
C85      C      0.270406    -0.294502     0.411218
C86      C     -0.205720    -0.140812     0.088782
C87      C     -0.294280    -0.205498     0.064908
C88      C      0.229594    -0.359188     0.435092
C89      C     -0.294502     0.411218     0.270406
C90      C      0.411218     0.270406    -0.294502
C91      C     -0.359188     0.435092     0.229594
C92      C      0.088782    -0.205720    -0.140812
C93      C     -0.140812     0.088782    -0.205720
C94      C      0.064908    -0.294280    -0.205498
C95      C     -0.205498     0.064908    -0.294280
C96      C      0.435092     0.229594    -0.359188
C97      C      0.265833    -0.155394    -0.053864
C98      C      0.398471     0.319697    -0.446136
C99      C      0.234167     0.180303    -0.421226
C100     C      0.101529    -0.344606    -0.078774
C101     C     -0.053864     0.265833    -0.155394
C102     C     -0.155394    -0.053864     0.265833
C103     C     -0.078774     0.101529    -0.344606
C104     C      0.319697    -0.446136     0.398471
C105     C     -0.446136     0.398471     0.319697
C106     C      0.180303    -0.421226     0.234167
C107     C     -0.421226     0.234167     0.180303
C108     C     -0.344606    -0.078774     0.101529
C109     C      0.344606    -0.234167     0.446136
C110     C     -0.180303    -0.101529     0.053864
C111     C     -0.319697    -0.265833     0.078774
C112     C      0.155394    -0.398471     0.421226
C113     C     -0.234167     0.446136     0.344606
C114     C      0.446136     0.344606    -0.234167
C115     C     -0.398471     0.421226     0.155394
C116     C      0.053864    -0.180303    -0.101529
C117     C     -0.101529     0.053864    -0.180303
C118     C      0.078774    -0.319697    -0.265833
C119     C     -0.265833     0.078774    -0.319697
C120     C      0.421226     0.155394    -0.398471
C121     C      0.174323    -0.216054    -0.099051
C122     C      0.382997     0.273374    -0.400949
C123     C      0.325677     0.226626    -0.390377
C124     C      0.117003    -0.283946    -0.109623
C125     C     -0.099051     0.174323    -0.216054
C126     C     -0.216054    -0.099051     0.174323
C127     C     -0.109623     0.117003    -0.283946
C128     C      0.273374    -0.400949     0.382997
C129     C     -0.400949     0.382997     0.273374
C130     C      0.226626    -0.390377     0.325677
C131     C     -0.390377     0.325677     0.226626
C132     C     -0.283946    -0.109623     0.117003
C133     C      0.283946    -0.325677     0.400949
C134     C     -0.226626    -0.117003     0.099051
C135     C     -0.273374    -0.174323     0.109623
C136     C      0.216054    -0.382997     0.390377
C137     C     -0.325677     0.400949     0.283946
C138     C      0.400949     0.283946    -0.325677
C139     C     -0.382997     0.390377     0.216054
C140     C      0.099051    -0.226626    -0.117003
C141     C     -0.117003     0.099051    -0.226626
C142     C      0.109623    -0.273374    -0.174323
C143     C     -0.174323     0.109623    -0.273374
C144     C      0.390377     0.216054    -0.382997
C145     C      0.189908    -0.171677    -0.086406
C146     C      0.414729     0.276314    -0.413594
C147     C      0.310092     0.223686    -0.361585
C148     C      0.085271    -0.328323    -0.138415
C149     C     -0.086406     0.189908    -0.171677
C150     C     -0.171677    -0.086406     0.189908
C151     C     -0.138415     0.085271    -0.328323
C152     C      0.276314    -0.413594     0.414729
C153     C     -0.413594     0.414729     0.276314
C154     C      0.223686    -0.361585     0.310092
C155     C     -0.361585     0.310092     0.223686
C156     C     -0.328323    -0.138415     0.085271
C157     C      0.328323    -0.310092     0.413594
C158     C     -0.223686    -0.085271     0.086406
C159     C     -0.276314    -0.189908     0.138415
C160     C      0.171677    -0.414729     0.361585
C161     C     -0.310092     0.413594     0.328323
C162     C      0.413594     0.328323    -0.310092
C163     C     -0.414729     0.361585     0.171677
C164     C      0.086406    -0.223686    -0.085271
C165     C     -0.085271     0.086406    -0.223686
C166     C      0.138415    -0.276314    -0.189908
C167     C     -0.189908     0.138415    -0.276314
C168     C      0.361585     0.171677    -0.414729
C169     C      0.405215    -0.061352     0.013748
C170     C      0.424901     0.391467     0.486252
C171     C      0.094785     0.108533    -0.466566
C172     C      0.075099    -0.438648    -0.033434
C173     C      0.013748     0.405215    -0.061352
C174     C     -0.061352     0.013748     0.405215
C175     C     -0.033434     0.075099    -0.438648
C176     C      0.391467     0.486252     0.424901
C177     C      0.486252     0.424901     0.391467
C178     C      0.108533    -0.466566     0.094785
C179     C     -0.466566     0.094785     0.108533
C180     C     -0.438648    -0.033434     0.075099
C181     C      0.438648    -0.094785    -0.486252
C182     C     -0.108533    -0.075099    -0.013748
C183     C     -0.391467    -0.405215     0.033434
C184     C      0.061352    -0.424901     0.466566
C185     C     -0.094785    -0.486252     0.438648
C186     C     -0.486252     0.438648    -0.094785
C187     C     -0.424901     0.466566     0.061352
C188     C     -0.013748    -0.108533    -0.075099
C189     C     -0.075099    -0.013748    -0.108533
C190     C      0.033434    -0.391467    -0.405215
C191     C     -0.405215     0.033434    -0.391467
C192     C      0.466566     0.061352    -0.424901
C193     C      0.331296    -0.080832     0.003863
C194     C      0.415305     0.327433     0.496137
C195     C      0.168704     0.172567    -0.412128
C196     C      0.084695    -0.419168    -0.087872
C197     C      0.003863     0.331296    -0.080832
C198     C     -0.080832     0.003863     0.331296
C199     C     -0.087872     0.084695    -0.419168
C200     C      0.327433     0.496137     0.415305
C201     C      0.496137     0.415305     0.327433
C202     C      0.172567    -0.412128     0.168704
C203     C     -0.412128     0.168704     0.172567
C204     C     -0.419168    -0.087872     0.084695
C205     C      0.419168    -0.168704    -0.496137
C206     C     -0.172567    -0.084695    -0.003863
C207     C     -0.327433    -0.331296     0.087872
C208     C      0.080832    -0.415305     0.412128
C209     C     -0.168704    -0.496137     0.419168
C210     C     -0.496137     0.419168    -0.168704
C211     C     -0.415305     0.412128     0.080832
C212     C     -0.003863    -0.172567    -0.084695
C213     C     -0.084695    -0.003863    -0.172567
C214     C      0.087872    -0.327433    -0.331296
C215     C     -0.331296     0.087872    -0.327433
C216     C      0.412128     0.080832    -0.415305
C217     C      0.250284    -0.199948    -0.066628
C218     C      0.366680     0.316912    -0.433372
C219     C      0.249716     0.183088    -0.450232
C220     C      0.133320    -0.300052    -0.049768
C221     C     -0.066628     0.250284    -0.199948
C222     C     -0.199948    -0.066628     0.250284
C223     C     -0.049768     0.133320    -0.300052
C224     C      0.316912    -0.433372     0.366680
C225     C     -0.433372     0.366680     0.316912
C226     C      0.183088    -0.450232     0.249716
C227     C     -0.450232     0.249716     0.183088
C228     C     -0.300052    -0.049768     0.133320
C229     C      0.300052    -0.249716     0.433372
C230     C     -0.183088    -0.133320     0.066628
C231     C     -0.316912    -0.250284     0.049768
C232     C      0.199948    -0.366680     0.450232
C233     C     -0.249716     0.433372     0.300052
C234     C      0.433372     0.300052    -0.249716
C235     C     -0.366680     0.450232     0.199948
C236     C      0.066628    -0.183088    -0.133320
C237     C     -0.133320     0.066628    -0.183088
C238     C      0.049768    -0.316912    -0.250284
C239     C     -0.250284     0.049768    -0.316912
C240     C      0.450232     0.199948    -0.366680
C241     C      0.313194    -0.123529    -0.029944
C242     C      0.406414     0.343138    -0.470056
C243     C      0.186806     0.156862    -0.436724
C244     C      0.093586    -0.376471    -0.063276
C245     C     -0.029944     0.313194    -0.123529
C246     C     -0.123529    -0.029944     0.313194
C247     C     -0.063276     0.093586    -0.376471
C248     C      0.343138    -0.470056     0.406414
C249     C     -0.470056     0.406414     0.343138
C250     C      0.156862    -0.436724     0.186806
C251     C     -0.436724     0.186806     0.156862
C252     C     -0.376471    -0.063276     0.093586
C253     C      0.376471    -0.186806     0.470056
C254     C     -0.156862    -0.093586     0.029944
C255     C     -0.343138    -0.313194     0.063276
C256     C      0.123529    -0.406414     0.436724
C257     C     -0.186806     0.470056     0.376471
C258     C      0.470056     0.376471    -0.186806
C259     C     -0.406414     0.436724     0.123529
C260     C      0.029944    -0.156862    -0.093586
C261     C     -0.093586     0.029944    -0.156862
C262     C      0.063276    -0.343138    -0.313194
C263     C     -0.313194     0.063276    -0.343138
C264     C      0.436724     0.123529    -0.406414
C265     C      0.234707    -0.142067    -0.064757
C266     C      0.422690     0.299464    -0.435243
C267     C      0.265293     0.200536    -0.376774
C268     C      0.077310    -0.357933    -0.123226
C269     C     -0.064757     0.234707    -0.142067
C270     C     -0.142067    -0.064757     0.234707
C271     C     -0.123226     0.077310    -0.357933
C272     C      0.299464    -0.435243     0.422690
C273     C     -0.435243     0.422690     0.299464
C274     C      0.200536    -0.376774     0.265293
C275     C     -0.376774     0.265293     0.200536
C276     C     -0.357933    -0.123226     0.077310
C277     C      0.357933    -0.265293     0.435243
C278     C     -0.200536    -0.077310     0.064757
C279     C     -0.299464    -0.234707     0.123226
C280     C      0.142067    -0.422690     0.376774
C281     C     -0.265293     0.435243     0.357933
C282     C      0.435243     0.357933    -0.265293
C283     C     -0.422690     0.376774     0.142067
C284     C      0.064757    -0.200536    -0.077310
C285     C     -0.077310     0.064757    -0.200536
C286     C      0.123226    -0.299464    -0.234707
C287     C     -0.234707     0.123226    -0.299464
C288     C      0.376774     0.142067    -0.422690
C289     C      0.386686    -0.105175    -0.019197
C290     C      0.414021     0.405882    -0.480803
C291     C      0.113314     0.094118    -0.491861
C292     C      0.085979    -0.394825    -0.008139
C293     C     -0.019197     0.386686    -0.105175
C294     C     -0.105175    -0.019197     0.386686
C295     C     -0.008139     0.085979    -0.394825
C296     C      0.405882    -0.480803     0.414021
C297     C     -0.480803     0.414021     0.405882
C298     C      0.094118    -0.491861     0.113314
C299     C     -0.491861     0.113314     0.094118
C300     C     -0.394825    -0.008139     0.085979
C301     C      0.394825    -0.113314     0.480803
C302     C     -0.094118    -0.085979     0.019197
C303     C     -0.405882    -0.386686     0.008139
C304     C      0.105175    -0.414021     0.491861
C305     C     -0.113314     0.480803     0.394825
C306     C      0.480803     0.394825    -0.113314
C307     C     -0.414021     0.491861     0.105175
C308     C      0.019197    -0.094118    -0.085979
C309     C     -0.085979     0.019197    -0.094118
C310     C      0.008139    -0.405882    -0.386686
C311     C     -0.386686     0.008139    -0.405882
C312     C      0.491861     0.105175    -0.414021
C313     C      0.376791    -0.049721     0.024698
C314     C      0.425581     0.352093     0.475302
C315     C      0.123209     0.147907    -0.426512
C316     C      0.074419    -0.450279    -0.073488
C317     C      0.024698     0.376791    -0.049721
C318     C     -0.049721     0.024698     0.376791
C319     C     -0.073488     0.074419    -0.450279
C320     C      0.352093     0.475302     0.425581
C321     C      0.475302     0.425581     0.352093
C322     C      0.147907    -0.426512     0.123209
C323     C     -0.426512     0.123209     0.147907
C324     C     -0.450279    -0.073488     0.074419
C325     C      0.450279    -0.123209    -0.475302
C326     C     -0.147907    -0.074419    -0.024698
C327     C     -0.352093    -0.376791     0.073488
C328     C      0.049721    -0.425581     0.426512
C329     C     -0.123209    -0.475302     0.450279
C330     C     -0.475302     0.450279    -0.123209
C331     C     -0.425581     0.426512     0.049721
C332     C     -0.024698    -0.147907    -0.074419
C333     C     -0.074419    -0.024698    -0.147907
C334     C      0.073488    -0.352093    -0.376791
C335     C     -0.376791     0.073488    -0.352093
C336     C      0.426512     0.049721    -0.425581
B1       B      0.454930    -0.028939     0.037524
B2       B      0.433537     0.417406     0.462476
B3       B      0.045070     0.082594    -0.483869
B4       B      0.066463    -0.471061    -0.016131
B5       B      0.037524     0.454930    -0.028939
B6       B     -0.028939     0.037524     0.454930
B7       B     -0.016131     0.066463    -0.471061
B8       B      0.417406     0.462476     0.433537
B9       B      0.462476     0.433537     0.417406
B10      B      0.082594    -0.483869     0.045070
B11      B     -0.483869     0.045070     0.082594
B12      B     -0.471061    -0.016131     0.066463
B13      B      0.471061    -0.045070    -0.462476
B14      B     -0.082594    -0.066463    -0.037524
B15      B     -0.417406    -0.454930     0.016131
B16      B      0.028939    -0.433537     0.483869
B17      B     -0.045070    -0.462476     0.471061
B18      B     -0.462476     0.471061    -0.045070
B19      B     -0.433537     0.483869     0.028939
B20      B     -0.037524    -0.082594    -0.066463
B21      B     -0.066463    -0.037524    -0.082594
B22      B      0.016131    -0.417406    -0.454930
B23      B     -0.454930     0.016131    -0.417406
B24      B      0.483869     0.028939    -0.433537
C337     C      0.342137    -0.135074    -0.040785
C338     C      0.405711     0.382921    -0.459215
C339     C      0.157863     0.117079    -0.477210
C340     C      0.094289    -0.364926    -0.022790
C341     C     -0.040785     0.342137    -0.135074
C342     C     -0.135074    -0.040785     0.342137
C343     C     -0.022790     0.094289    -0.364926
C344     C      0.382921    -0.459215     0.405711
C345     C     -0.459215     0.405711     0.382921
C346     C      0.117079    -0.477210     0.157863
C347     C     -0.477210     0.157863     0.117079
C348     C     -0.364926    -0.022790     0.094289
C349     C      0.364926    -0.157863     0.459215
C350     C     -0.117079    -0.094289     0.040785
C351     C     -0.382921    -0.342137     0.022790
C352     C      0.135074    -0.405711     0.477210
C353     C     -0.157863     0.459215     0.364926
C354     C      0.459215     0.364926    -0.157863
C355     C     -0.405711     0.477210     0.135074
C356     C      0.040785    -0.117079    -0.094289
C357     C     -0.094289     0.040785    -0.117079
C358     C      0.022790    -0.382921    -0.342137
C359     C     -0.342137     0.022790    -0.382921
C360     C      0.477210     0.135074    -0.405711
C361     C      0.250000    -0.375000     0.375000
C362     C     -0.250000    -0.125000     0.125000
C363     C      0.375000     0.250000    -0.375000
C364     C     -0.375000     0.375000     0.250000
C365     C      0.125000    -0.250000    -0.125000
C366     C     -0.125000     0.125000    -0.250000
