data_1LiFSI-4EC-conf5_MOLECULE_OPT_symm_HSESOL3C_SOLDEF2MSVP

_cell_length_a    48.152277
_cell_length_b    48.396766
_cell_length_c    48.719395
_cell_angle_alpha 90.000000
_cell_angle_beta  90.000000
_cell_angle_gamma 90.000000

_symmetry_space_group_name_H-M  'P 1'
_symmetry_Int_Tables_number     1

loop_
_symmetry_equiv_pos_as_xyz
  'x, y, z'

loop_
_atom_site_label
_atom_site_type_symbol
_atom_site_fract_x
_atom_site_fract_y
_atom_site_fract_z
O1       O      0.429467     0.450791     0.518644
F1       F      0.415349     0.508847     0.493256
O2       O      0.479775     0.443773     0.508459
S1       S      0.439961     0.515384     0.513806
N1       N      0.461834     0.491178     0.506862
O3       O      0.428131     0.513620     0.540873
O4       O      0.451874     0.540905     0.504217
S2       S      0.457657     0.460625     0.519370
F2       F      0.464837     0.464725     0.550719
Li1      Li     0.484646     0.494063     0.472185
C1       C      0.564295     0.461483     0.479029
C2       C      0.541298     0.475018     0.495897
O5       O      0.565285     0.478140     0.454799
O6       O      0.525758     0.489314     0.475089
C3       C      0.541605     0.491978     0.452085
O7       O      0.534806     0.505474     0.432722
H1       H      0.559349     0.440092     0.473236
H2       H      0.584651     0.462062     0.489150
H3       H      0.548945     0.490362     0.510680
H4       H      0.527721     0.460161     0.506242
C4       C      0.499096     0.564311     0.425631
C5       C      0.494116     0.554386     0.454914
O8       O      0.477515     0.550841     0.410514
O9       O      0.479339     0.528965     0.450337
C6       C      0.468305     0.529112     0.424608
O10      O      0.452377     0.512126     0.416502
H5       H      0.519351     0.557740     0.417523
H6       H      0.496910     0.586749     0.423276
H7       H      0.480789     0.568275     0.466945
H8       H      0.513193     0.550279     0.466431
C7       C      0.484487     0.558109     0.563438
C8       C      0.492541     0.528270     0.570445
O11      O      0.503870     0.565438     0.542508
O12      O      0.509496     0.520330     0.547763
C9       C      0.516255     0.542669     0.532861
O13      O      0.531739     0.542167     0.513622
H9       H      0.486799     0.572331     0.580845
H10      H      0.463280     0.559808     0.555306
H11      H      0.474661     0.514335     0.571823
H12      H      0.504763     0.526677     0.589486
C10      C      0.440343     0.424220     0.451169
C11      C      0.441142     0.455312     0.446103
O14      O      0.468238     0.415893     0.445356
O15      O      0.470115     0.461334     0.450052
C12      C      0.485119     0.437583     0.447403
O16      O      0.509851     0.436978     0.446629
H13      H      0.426132     0.413251     0.437353
H14      H      0.435241     0.418974     0.472543
H15      H      0.428722     0.467325     0.460693
H16      H      0.435297     0.461201     0.425118
