data_1LiFSI-1EC-conf2_MOLECULE_OPT_symm_HSESOL3C_SOLDEF2MSVP

_cell_length_a    45.439833
_cell_length_b    45.100451
_cell_length_c    46.979238
_cell_angle_alpha 90.000000
_cell_angle_beta  90.000000
_cell_angle_gamma 90.000000

_symmetry_space_group_name_H-M  'P 1'
_symmetry_Int_Tables_number     1

loop_
_symmetry_equiv_pos_as_xyz
  'x, y, z'

loop_
_atom_site_label
_atom_site_type_symbol
_atom_site_fract_x
_atom_site_fract_y
_atom_site_fract_z
O1       O      0.508825     0.457524     0.534406
F1       F      0.475217     0.513579     0.529231
O2       O      0.559858     0.466679     0.516033
S1       S      0.503403     0.527171     0.544422
N1       N      0.530247     0.509684     0.530529
O3       O      0.498301     0.524045     0.574280
O4       O      0.506329     0.556545     0.531476
S2       S      0.535745     0.474377     0.534226
F2       F      0.547677     0.472814     0.565643
Li1      Li     0.533328     0.541608     0.501074
C1       C      0.481904     0.465488     0.470259
C2       C      0.463873     0.481188     0.447219
O5       O      0.506609     0.484953     0.473439
O6       O      0.474751     0.511028     0.448418
C3       C      0.499749     0.511319     0.462979
O7       O      0.514687     0.533322     0.466227
H1       H      0.489800     0.443455     0.464046
H2       H      0.470530     0.463830     0.490830
H3       H      0.440142     0.481336     0.451477
H4       H      0.467710     0.472300     0.425720
