data_1LiFSI-1DEC-conf1_MOLECULE_OPT_symm_HSESOL3C_SOLDEF2MSVP

_cell_length_a    45.447712
_cell_length_b    47.136955
_cell_length_c    48.285670
_cell_angle_alpha 90.000000
_cell_angle_beta  90.000000
_cell_angle_gamma 90.000000

_symmetry_space_group_name_H-M  'P 1'
_symmetry_Int_Tables_number     1

loop_
_symmetry_equiv_pos_as_xyz
  'x, y, z'

loop_
_atom_site_label
_atom_site_type_symbol
_atom_site_fract_x
_atom_site_fract_y
_atom_site_fract_z
O1       O      0.536779     0.465267     0.514306
F1       F      0.492561     0.456440     0.559309
O2       O      0.523526     0.511308     0.491582
S1       S      0.502361     0.487323     0.567879
N1       N      0.507193     0.503456     0.539240
O3       O      0.527132     0.483893     0.585798
O4       O      0.475336     0.500707     0.578047
S2       S      0.531008     0.495187     0.515923
F2       F      0.559934     0.509075     0.527604
Li1      Li     0.468238     0.522592     0.543495
C1       C      0.461913     0.441041     0.491273
C2       C      0.462063     0.469174     0.476360
O5       O      0.454241     0.490746     0.496445
C3       C      0.456856     0.517888     0.490774
C4       C      0.477378     0.553828     0.427735
C5       C      0.468901     0.552882     0.457927
O6       O      0.461453     0.523878     0.464646
O7       O      0.454288     0.535445     0.509373
H1       H      0.440066     0.435811     0.499477
H2       H      0.477805     0.440831     0.508329
H3       H      0.468215     0.424296     0.476653
H4       H      0.446045     0.469535     0.459255
H5       H      0.483967     0.473883     0.467863
H6       H      0.459273     0.547129     0.414202
H7       H      0.496585     0.540423     0.423513
H8       H      0.483155     0.575704     0.422198
H9       H      0.449846     0.566588     0.462286
H10      H      0.487224     0.559712     0.471223
